 ****** HSPICE -- G-2012.06 64-BIT (May 27 2012) RHEL64 ******                  
  Copyright (C) 2012 Synopsys, Inc. All Rights Reserved.                        
  Unpublished-rights reserved under US copyright laws.
  This program is protected by law and is subject to the
  terms and conditions of the license agreement from Synopsys.
  Use of this program is your acceptance to be bound by the
  license agreement. HSPICE is the trademark of Synopsys, Inc.
  Input File: path_new.sp                                                       
  Command line options: -i path_new.sp -o path_new.lis
 lic: No 'setenv LM_LICENSE_FILE' in current environment' 
 lic:  
 lic: FLEXlm: v10.8 
 lic: USER:   cheny                HOSTNAME: eeapps02.seas.ucla.edu 
 lic: HOSTID:                      PID:      77031 
 lic: Using FLEXlm license file: 
 lic: 1784@lmserv2.seas.ucla.edu 
 lic: Checkout 1 hspice 
 lic: License/Maintenance for hspice will expire on 25-jun-2018/2017.03 
 lic: 5(in_use)/50(total) FLOATING license(s) on SERVER lmserv2.seas.ucla.edu 
 lic:   
 Init: read install configuration file: /w/apps3/Synopsys/HSPICE/vG-2012.06/hspice/meta.cfg
  **warning** (./l0040ll_v1p4_1r_1.mdl:2) Model nlvt11ll_ckt_11 device geometries will not be checked against the limits set by lmin, lmax, wmin and wmax. To enable this check, add a period(.) to the model name(i.e. enable model selector).
1****** HSPICE -- G-2012.06 64-BIT (May 27 2012) RHEL64 ******                  
 ******  
 **

  ******  circuit name directory
 circuit number to circuit name directory
   number circuitname                     definition         multiplier
        0 main circuit
        1 x1.                             inv1               1.00 
        2 xnand1.                         nand1              1.00 
        3 x2.                             inv2               1.00 
        4 xnand2.                         nand2              1.00 
        5 x3.                             inv3               1.00 
        6 xnand3.                         nand3              1.00 
        7 x4.                             inv4               1.00 
        8 xnand4.                         nand4              1.00 
        9 x5.                             inv5               1.00 
       10 xnand5.                         nand5              1.00 
       11 x6.                             inv6               1.00 
       12 xnand6.                         nand6              1.00 
       13 x7.                             inv7               1.00 
       14 xnand7.                         nand7              1.00 
       15 x8.                             inv8               1.00 
       16 xnand8.                         nand8              1.00 
       17 x9.                             inv9               1.00 
       18 xnand9.                         nand9              1.00 
       19 x10.                            inv10              1.00 
       20 xnand10.                        nand10             1.00 
       21 x1.xp.                          plvt11ll_ckt_11    1.00 
       22 x1.xn.                          nlvt11ll_ckt_11    1.00 
       23 xnand1.xp1.                     plvt11ll_ckt_12    1.00 
       24 xnand1.xp2.                     plvt11ll_ckt_13    1.00 
       25 xnand1.xn1.                     nlvt11ll_ckt_12    1.00 
       26 xnand1.xn2.                     nlvt11ll_ckt_13    1.00 
       27 x2.xp.                          plvt11ll_ckt_21    1.00 
       28 x2.xn.                          nlvt11ll_ckt_21    1.00 
       29 xnand2.xp1.                     plvt11ll_ckt_22    1.00 
       30 xnand2.xp2.                     plvt11ll_ckt_23    1.00 
       31 xnand2.xn1.                     nlvt11ll_ckt_22    1.00 
       32 xnand2.xn2.                     nlvt11ll_ckt_23    1.00 
       33 x3.xp.                          plvt11ll_ckt_31    1.00 
       34 x3.xn.                          nlvt11ll_ckt_31    1.00 
       35 xnand3.xp1.                     plvt11ll_ckt_32    1.00 
       36 xnand3.xp2.                     plvt11ll_ckt_33    1.00 
       37 xnand3.xn1.                     nlvt11ll_ckt_32    1.00 
       38 xnand3.xn2.                     nlvt11ll_ckt_33    1.00 
       39 x4.xp.                          plvt11ll_ckt_41    1.00 
       40 x4.xn.                          nlvt11ll_ckt_41    1.00 
       41 xnand4.xp1.                     plvt11ll_ckt_42    1.00 
       42 xnand4.xp2.                     plvt11ll_ckt_43    1.00 
       43 xnand4.xn1.                     nlvt11ll_ckt_42    1.00 
       44 xnand4.xn2.                     nlvt11ll_ckt_43    1.00 
       45 x5.xp.                          plvt11ll_ckt_51    1.00 
       46 x5.xn.                          nlvt11ll_ckt_51    1.00 
       47 xnand5.xp1.                     plvt11ll_ckt_52    1.00 
       48 xnand5.xp2.                     plvt11ll_ckt_53    1.00 
       49 xnand5.xn1.                     nlvt11ll_ckt_52    1.00 
       50 xnand5.xn2.                     nlvt11ll_ckt_53    1.00 
       51 x6.xp.                          plvt11ll_ckt_61    1.00 
       52 x6.xn.                          nlvt11ll_ckt_61    1.00 
       53 xnand6.xp1.                     plvt11ll_ckt_62    1.00 
       54 xnand6.xp2.                     plvt11ll_ckt_63    1.00 
       55 xnand6.xn1.                     nlvt11ll_ckt_62    1.00 
       56 xnand6.xn2.                     nlvt11ll_ckt_63    1.00 
       57 x7.xp.                          plvt11ll_ckt_71    1.00 
       58 x7.xn.                          nlvt11ll_ckt_71    1.00 
       59 xnand7.xp1.                     plvt11ll_ckt_72    1.00 
       60 xnand7.xp2.                     plvt11ll_ckt_73    1.00 
       61 xnand7.xn1.                     nlvt11ll_ckt_72    1.00 
       62 xnand7.xn2.                     nlvt11ll_ckt_73    1.00 
       63 x8.xp.                          plvt11ll_ckt_81    1.00 
       64 x8.xn.                          nlvt11ll_ckt_81    1.00 
       65 xnand8.xp1.                     plvt11ll_ckt_82    1.00 
       66 xnand8.xp2.                     plvt11ll_ckt_83    1.00 
       67 xnand8.xn1.                     nlvt11ll_ckt_82    1.00 
       68 xnand8.xn2.                     nlvt11ll_ckt_83    1.00 
       69 x9.xp.                          plvt11ll_ckt_91    1.00 
       70 x9.xn.                          nlvt11ll_ckt_91    1.00 
       71 xnand9.xp1.                     plvt11ll_ckt_92    1.00 
       72 xnand9.xp2.                     plvt11ll_ckt_93    1.00 
       73 xnand9.xn1.                     nlvt11ll_ckt_92    1.00 
       74 xnand9.xn2.                     nlvt11ll_ckt_93    1.00 
       75 x10.xp.                         plvt11ll_ckt_101   1.00 
       76 x10.xn.                         nlvt11ll_ckt_101   1.00 
       77 xnand10.xp1.                    plvt11ll_ckt_102   1.00 
       78 xnand10.xp2.                    plvt11ll_ckt_103   1.00 
       79 xnand10.xn1.                    nlvt11ll_ckt_102   1.00 
       80 xnand10.xn2.                    nlvt11ll_ckt_103   1.00 
1****** HSPICE -- G-2012.06 64-BIT (May 27 2012) RHEL64 ******                  
 ******  
 **

  ******  mos   model parameters tnom=  25.000 temp=  25.000 *****
 Model Name: plvt11ll_ckt_11  
 BSIM4 Model (Level 54)
    MOBMOD = 0
    BINUNIT = 2
    PARAMCHK = 1
    CAPMOD = 2
    DIOMOD = 2
    RDSMOD = 1
    TRNQSMOD = 0
    ACNQSMOD = 0
    RBODYMOD = 0
    RGATEMOD = 0
    PERMOD = 1
    GEOMOD = 0
    RGEOMOD = 1
    FNOIMOD = 1
    TNOIMOD = 0
    IGCMOD = 2
    IGBMOD = 1
    STIMOD = 1
    VBFWDMOD = 0
    VERSION =    4.5 
    TOXREF = 2.7e-09 
    TOXE = 2.7e-09 
    TOXP = 2.49e-09 
    TOXM = 2.7e-09 
    DTOX = 2.1e-10 
    EPSROX =    3.9 
    CDSC =      0 
    CDSCB =      0 
    CDSCD = 0.0005 
    CIT = 0.0001 
    NFACTOR =      1 
    XJ = 8.6e-08 
    VSAT = 1.2e+05 
    A0 =    0.9 
    AGS =    0.5 
    A1 =      0 
    A2 =      1 
    AT =  1e+04 
    KETA = -0.002 
    NSUB =  6e+16 
    NDEP =  1e+17 
    NSD =  1e+20 
    NGATE =  3e+21 
    GAMMA1 =      0 
    GAMMA2 =      0 
    VBX =      0 
    VBM =     -3 
    XT = 1.55e-07 
    K1 =    0.3 
    KT1 =  -0.12 
    KT1L = -4.6e-09 
    KT2 = -0.025 
    K2 =  -0.03 
    K3 =      1 
    K3B = 0.9348 
    LPE0 =      0 
    LPEB = 1.5e-08 
    DVTP0 =  4e-07 
    DVTP1 =      0 
    W0 =  1e-05 
    DVT0 =    0.1 
    DVT1 =    0.3 
    DVT2 =   0.19 
    DVT0W =  0.102 
    DVT1W = 5.3e+06 
    DVT2W = -0.032 
    DROUT =   0.56 
    DSUB =   0.56 
    VTH0 = -0.3875 
    EU =   1.67 
    UA = -7.4e-10 
    UA1 =  1e-09 
    UB = 1.65e-18 
    UB1 = -1e-18 
    UC = 2.5e-11 
    UC1 =  5e-11 
    U0 = 0.008834 
    UTE =   -0.8 
    VOFF =  -0.15 
    VOFFL =      0 
    MINV =  -0.35 
    FPROUT =    100 
    PDITS =   0.82 
    PDITSD =    0.7 
    PDITSL =  3e+06 
    DELTA =   0.01 
    RDSW =    200 
    RDSWMIN =      0 
    RDWMIN =      0 
    RSWMIN =      0 
    RDW =     95 
    RSW =     95 
    PRWG =      0 
    PRWB =      0 
    PRT =      0 
    ETA0 =  0.088 
    ETAB =  -0.01 
    PCLM =    0.1 
    PDIBLC1 =   0.05 
    PDIBLC2 =  0.001 
    PDIBLCB =      0 
    PSCBE1 = 4.24e+08 
    PSCBE2 =  1e-05 
    PVAG =      1 
    WR =      1 
    DWG =      0 
    DWB =      0 
    XW = 1.8e-08 
    XWREF = 1.8e-08 
    XL = 5.1e-09 
    XLREF = 5.1e-09 
    B0 =      0 
    B1 =      0 
    ALPHA0 =      0 
    ALPHA1 = 0.0028 
    AGIDL =      0 
    BGIDL = 2.3e+09 
    CGIDL =    0.5 
    PHIN =  0.065 
    EGIDL =    0.8 
    AIGC =  0.007 
    BIGC = 0.0006 
    CIGC =   0.03 
    AIGSD = 0.0059 
    BIGSD =      0 
    CIGSD =   0.03 
    AIGBACC =  0.014 
    BIGBACC = 0.00171 
    CIGBACC =  0.075 
    AIGBINV = 0.0111 
    BIGBINV = 0.000949 
    CIGBINV =  0.006 
    NIGC =      1 
    NIGBINV =      3 
    NIGBACC =      1 
    NTOX =      1 
    EIGBINV =    1.1 
    PIGCD =    2.8 
    POXEDGE =      1 
    XRCRG1 =     12 
    TNOIA =    1.5 
    TNOIB =    3.5 
    NTNOI =      1 
    XRCRG2 =      1 
    BETA0 =    7.4 
    IJTHDFWD =    0.1 
    IJTHSFWD =    0.1 
    IJTHDREV =    0.1 
    IJTHSREV =    0.1 
    XJBVD =      1 
    XJBVS =      1 
    BVD =   8.55 
    BVS =   8.55 
    VFB =     -1 
    GBMIN =  1e-12 
    RBDB =     50 
    RBPB =     50 
    RBSB =     50 
    RBPS =     50 
    RBPD =     50 
    CGSL = 6.5e-11 
    CGDL = 6.5e-11 
    CKAPPAS =    0.6 
    CKAPPAD =    0.6 
    CF = 7.44e-11 
    CLC =  1e-07 
    CLE =    0.6 
    DWC =      0 
    DLC = 8.1e-09 
    DLCIG =  4e-09 
    DWJ =      0 
    VFBCV =     -1 
    ACDE =    0.5 
    MOIN =    8.5 
    NOFF =    1.7 
    VOFFCV = -0.065 
    DMCG = 6.3e-08 
    DMCI = 1.98e-07 
    DMDG =      0 
    DMCGT =      0 
    XGW =      0 
    XGL =      0 
    RSHG =    0.1 
    NGCON =      1 
    TCJ = 0.0006843 
    TPB = 0.001006 
    TCJSW = 0.000349 
    TPBSW = 0.001967 
    TCJSWG = 0.0022 
    TPBSWG =  1e-05 
    SK0 =      0 
    SK1 =      0 
    SK2 =      0 
    SL =  2e-06 
    SW =  2e-06 
    K =      0 
    LCIT =  2e-10 
    LVSAT = -0.00172 
    LAT = -0.0006 
    LKETA =  2e-09 
    LK2 = -3.5e-09 
    LLPE0 = 2.53e-15 
    LDVT0 = 3.94e-09 
    LVTH0 = 3.26e-09 
    LUA = -3.2e-18 
    LUB = -1.1e-26 
    LUB1 =  5e-26 
    LUC = -1e-18 
    LU0 = -1.08e-10 
    LUTE =  3e-08 
    LVOFF = -2e-09 
    LMINV = 2.5e-08 
    LETA0 = -2.41e-10 
    LALPHA0 = 4.4e-17 
    LNOFF =  3e-08 
    WAGS =  4e-08 
    WKT1 = 1.1e-08 
    WVTH0 = 4.5e-09 
    WUA = -3.6e-17 
    WUB1 =  7e-26 
    WUTE =  3e-08 
    PCDSCD = -2e-18 
    PCIT = -6e-18 
    PVSAT =  1e-11 
    PAT =  1e-10 
    PKT1 = -7.1e-16 
    PKT2 =  3e-17 
    PVTH0 = -3.4e-16 
    PETA0 = -1.8e-16 
    TNOM =  298.1 
    CGSO =  6e-11 
    CGDO =  6e-11 
    CGBO =      0 
    XPART =      1 
    RSH =     12 
    JSS = 1.418e-08 
    JSWS = 1.2e-13 
    JSWGS = 1.53e-12 
    PBS =  0.731 
    MJS =  0.356 
    PBSWS =  0.982 
    MJSWS =  0.231 
    CJS = 0.001404 
    CJSWS = 5.484e-11 
    NJS =  0.998 
    PBSWGS =  0.204 
    MJSWGS = 0.9085 
    CJSWGS = 1.671e-10 
    XTIS =  6.685 
    JSD = 1.418e-08 
    JSWD = 1.2e-13 
    JSWGD = 1.53e-12 
    PBD =  0.731 
    MJD =  0.356 
    PBSWD =  0.982 
    MJSWD =  0.231 
    CJD = 0.001404 
    CJSWD = 5.484e-11 
    NJD =  0.998 
    PBSWGD =  0.204 
    MJSWGD = 0.9085 
    CJSWGD = 1.671e-10 
    XTID =  6.685 
    LMLT =      1 
    WMLT =      1 
    LINT = -2e-09 
    LL =  1e-17 
    LLC =      0 
    LLN =      1 
    LW =      0 
    LWC =      0 
    LWN =      1 
    LWL =      0 
    LWLC =      0 
    LMIN = 3.6e-08 
    LMAX = 0.0001 
    WINT = -6e-09 
    WL = -2e-16 
    WLC =      0 
    WLN =      1 
    WW = 2.5e-16 
    WWC =      0 
    WWN =   1.05 
    WWL = 1.8e-23 
    WWLC =      0 
    WMIN = 1.08e-07 
    WMAX = 0.0001 
    NOIA = 1.74e+42 
    NOIB = -1.55e+26 
    NOIC = 1.24e+10 
    EM = 1.14e+08 
    EF =    1.1 
    AF =      1 
    KF =      0 
    TRS =      0 
    TRD =      0 
    TEMPMOD  =      0 
    LAMBDA   =      0 
    VTL      =  2e+05 m/s
    LC       =  5e-09 
    XN       =      3 
    LLAMBDA  =      0 
    LVTL     =      0 
    LXN      =      0 
    WLAMBDA  =      0 
    WVTL     =      0 
    WXN      =      0 
    PLAMBDA  =      0 
    PVTL     =      0 
    PXN      =      0 
    RNOIA    =  0.577 
    RNOIB    = 0.5164 
    SAREF(SA0) = 2.61e-07 m
    SBREF(SB0) = 2.61e-07 m
    WLOD     =      0 m
    KU0      =  5e-10 1/m
    KVSAT    =      1 
    KVTH0    = -1.5e-09 m
    TKU0     =      0 
    LLODKU0  =      1 
    WLODKU0  =      1 
    LLODVTH  =      1 
    WLODVTH  =      1 
    LKU0     =      0 
    WKU0     =      0 
    PKU0     = -1e-15 
    LKVTH0   = -1.8e-08 
    WKVTH0   =      0 
    PKVTH0   =  1e-15 
    STK2     =      0 
    LODK2    =      1 
    STETA0   = -5e-10 
    LODETA0  =      1 
    LXRCRG1  =      0 
    WXRCRG1  =      0 
    PXRCRG1  =      0 
    LXRCRG2  =      0 
    WXRCRG2  =      0 
    PXRCRG2  =      0 
     *** UCB's BSIM4.4.0 new diode model is activated. ***
    *** UCB's Diode Model Parameters ***
    JTSS         =      0 
    JTSSWS       =      0 
    JTSSWGS      =  1e-09 
    JTSD         =      0 
    JTSSWD       =      0 
    JTSSWGD      =  1e-09 
    NJTS         =     20 
    NJTSSW       =     20 
    NJTSSWG      =     20 
    XTSS         =   0.02 
    XTSSWS       =   0.02 
    XTSSWGS      =    0.4 
    XTSD         =   0.02 
    XTSSWD       =   0.02 
    XTSSWGD      =    0.4 
    TNJTS        =      0 
    TNJTSSW      =      0 
    TNJTSSWG     =      0 
    VFBSDOFF     =      0 
    LVFBSDOFF    =      0 
    WVFBSDOFF    =      0 
    PVFBSDOFF    =      0 
    LINTNOI      = -7.17e-09 
    VTSS         =     10 
    VTSD         =     10 
    VTSSWS       =     10 
    VTSSWD       =     10 
    VTSSWGS      =     10 
    VTSSWGD      =     10 
    TTDIOMOD     =      1 
     *** UCB's BSIM4.5.0 new model is activated. ***
    UD         =      0 
    UD1        =      0 
    UP         =   0.08 
    LP         =  1e-06 
    TVOFF      =  0.004 
    TVFBSDOFF  =      0 
    RBPS0      =     50 
    RBPSL      =      0 
    RBPSW      =      0 
    RBPSNF     =      0 
    RBPD0      =     50 
    RBPDL      =      0 
    RBPDW      =      0 
    RBPDNF     =      0 
    RBPBX0     =    100 
    RBPBXL     =      0 
    RBPBXW     =      0 
    RBPBXNF    =      0 
    RBPBY0     =    100 
    RBPBYL     =      0 
    RBPBYW     =      0 
    RBPBYNF    =      0 
    RBSBX0     =    100 
    RBSBY0     =    100 
    RBDBX0     =    100 
    RBDBY0     =    100 
    RBSDBXL    =      0 
    RBSDBXW    =      0 
    RBSDBXNF   =      0 
    RBSDBYL    =      0 
    RBSDBYW    =      0 
    RBSDBYNF   =      0 
    LUD        =      0 
    LUD1       =      0 
    LUP        =      0 
    LLP        =      0 
    LTVOFF     =      0 
    LTVFBSDOFF =      0 
    WUD        =      0 
    WUD1       =      0 
    WUP        =      0 
    WLP        =      0 
    WTVOFF     =  2e-10 
    WTVFBSDOFF =      0 
    PUD        =      0 
    PUD1       =      0 
    PUP        =      0 
    PLP        =      0 
    PTVOFF     = -2.6e-17 
    PTVFBSDOFF =      0 
    WEB        =      1 
    WEC        =      1 
    KVTH0WE    = -0.0008 
    K2WE       =      0 
    KU0WE      = -0.0015 
    SCREF      =  1e-06 
    WPEMOD     =      1 
    LKVTH0WE   =      0 
    LK2WE      =      0 
    LKU0WE     =      0 
    WKVTH0WE   = 7.5e-11 
    WK2WE      =      0 
    WKU0WE     =  8e-11 
    PKVTH0WE   =      0 
    PK2WE      =      0 
    PKU0WE     =      0 
 Model Name: nlvt11ll_ckt_11  
 BSIM4 Model (Level 54)
    MOBMOD = 0
    BINUNIT = 2
    PARAMCHK = 1
    CAPMOD = 2
    DIOMOD = 2
    RDSMOD = 1
    TRNQSMOD = 0
    ACNQSMOD = 0
    RBODYMOD = 0
    RGATEMOD = 0
    PERMOD = 1
    GEOMOD = 0
    RGEOMOD = 1
    FNOIMOD = 1
    TNOIMOD = 0
    IGCMOD = 2
    IGBMOD = 1
    STIMOD = 1
    VBFWDMOD = 0
    VERSION =    4.5 
    TOXREF = 2.37e-09 
    TOXE = 2.37e-09 
    TOXP = 2.262e-09 
    TOXM = 2.37e-09 
    DTOX = 1.08e-10 
    EPSROX =    3.9 
    CDSC = 0.006659 
    CDSCB =  5e-05 
    CDSCD =  2e-05 
    CIT = 0.00155 
    NFACTOR =    1.3 
    XJ = 9.7e-08 
    VSAT = 1.02e+05 
    A0 =    2.3 
    AGS = 0.7794 
    A1 =      0 
    A2 =      1 
    AT =  3e+04 
    KETA = -0.02036 
    NSUB =  6e+16 
    NDEP = 1.5e+17 
    NSD =  1e+20 
    NGATE =  2e+21 
    GAMMA1 =      0 
    GAMMA2 =      0 
    VBX =      0 
    VBM =     -3 
    XT = 1.55e-07 
    K1 = 0.3103 
    KT1 = -0.228 
    KT1L =      0 
    KT2 =  -0.04 
    K2 = -0.01406 
    K3 =    1.5 
    K3B =   5.64 
    LPE0 =      0 
    LPEB =      0 
    DVTP0 = 4.816e-06 
    DVTP1 =      0 
    W0 =      0 
    DVT0 =      0 
    DVT1 =  1.919 
    DVT2 =  0.027 
    DVT0W =      0 
    DVT1W = 5.724e+06 
    DVT2W = -0.016 
    DROUT =   0.56 
    DSUB =   0.56 
    VTH0 = 0.3059 
    EU =   1.67 
    UA = -1.02e-09 
    UA1 = 1.612e-09 
    UB = 1.8e-18 
    UB1 = -1.46e-18 
    UC = 6.667e-11 
    UC1 = 5.2e-11 
    U0 = 0.02604 
    UTE =  -1.03 
    VOFF = -0.1641 
    VOFFL = -1e-09 
    MINV = -0.3522 
    FPROUT =    100 
    PDITS = 0.9162 
    PDITSD = 0.4067 
    PDITSL = 4.357e+06 
    DELTA = 0.01076 
    RDSW =    200 
    RDSWMIN =      0 
    RDWMIN =      0 
    RSWMIN =      0 
    RDW =     24 
    RSW =     24 
    PRWG =      1 
    PRWB =      0 
    PRT =      0 
    ETA0 =  0.001 
    ETAB = -0.2451 
    PCLM = 0.005431 
    PDIBLC1 =      0 
    PDIBLC2 = 0.006266 
    PDIBLCB =      0 
    PSCBE1 = 6.24e+08 
    PSCBE2 =  1e-05 
    PVAG =      0 
    WR =      1 
    DWG =      0 
    DWB =      0 
    XW = 1.7e-08 
    XWREF = 1.7e-08 
    XL = 5.8e-09 
    XLREF = 5.8e-09 
    B0 = 2.16e-08 
    B1 =      0 
    ALPHA0 = 7.286e-08 
    ALPHA1 =  1.272 
    AGIDL =  2e-12 
    BGIDL = 3.6e+08 
    CGIDL =  15.21 
    PHIN = 0.1344 
    EGIDL =      0 
    AIGC = 0.0122 
    BIGC = 0.00176 
    CIGC = 0.04108 
    AIGSD = 0.01043 
    BIGSD = 0.00045 
    CIGSD =      0 
    AIGBACC = 0.02487 
    BIGBACC = 0.00171 
    CIGBACC =  0.075 
    AIGBINV = 0.0111 
    BIGBINV = 0.000949 
    CIGBINV =  0.006 
    NIGC =   2.43 
    NIGBINV =      3 
    NIGBACC =      1 
    NTOX =      1 
    EIGBINV =    1.1 
    PIGCD =  3.616 
    POXEDGE =      1 
    XRCRG1 =     12 
    TNOIA =    1.5 
    TNOIB =    3.5 
    NTNOI =      1 
    XRCRG2 =      1 
    BETA0 =  13.47 
    IJTHDFWD =    0.1 
    IJTHSFWD =    0.1 
    IJTHDREV =    0.1 
    IJTHSREV =    0.1 
    XJBVD =      1 
    XJBVS =      1 
    BVD =    9.3 
    BVS =    9.3 
    VFB =     -1 
    GBMIN =  1e-12 
    RBDB =     50 
    RBPB =     50 
    RBSB =     50 
    RBPS =     50 
    RBPD =     50 
    CGSL = 5.7e-11 
    CGDL = 5.7e-11 
    CKAPPAS =    0.6 
    CKAPPAD =    0.6 
    CF = 7.715e-11 
    CLC =  1e-07 
    CLE =    0.6 
    DWC =      0 
    DLC = 7.92e-09 
    DLCIG = 3.5e-10 
    DWJ =      0 
    VFBCV =     -1 
    ACDE = 0.2778 
    MOIN =    5.4 
    NOFF =  2.088 
    VOFFCV = -0.1165 
    DMCG = 6.3e-08 
    DMCI = 1.98e-07 
    DMDG =      0 
    DMCGT =      0 
    XGW =      0 
    XGL =      0 
    RSHG =    0.1 
    NGCON =      1 
    TCJ = 0.0006309 
    TPB = 0.000957 
    TCJSW = 0.000644 
    TPBSW = 0.000644 
    TCJSWG = 0.000582 
    TPBSWG = 0.000353 
    SK0 =      0 
    SK1 =      0 
    SK2 =      0 
    SL =  2e-06 
    SW =  2e-06 
    K =      0 
    LCIT = 1.709e-10 
    LVSAT = 0.001673 
    LA0 = 7.943e-08 
    LAGS = 4.714e-07 
    LKETA = 3.936e-09 
    LKT1 = -3.26e-09 
    LKT2 =  5e-10 
    LK2 = 2.691e-10 
    LLPE0 = 5.548e-15 
    LDVT0 = 5.368e-07 
    LDVT1 = -6.112e-08 
    LVTH0 = -6.001e-09 
    LUA = -1.2e-18 
    LUB = 1.31e-25 
    LUB1 =  5e-26 
    LUC = 1.191e-17 
    LUC1 = 1.2e-17 
    LU0 = 1.66e-09 
    LUTE = 4.04e-08 
    LVOFF = -1.893e-09 
    LMINV = 6.117e-09 
    LDELTA = 4.581e-09 
    LETA0 = 9.64e-09 
    LETAB = 1.11e-08 
    LPDIBLC2 = -3.06e-10 
    LPDITS = -4.734e-08 
    LPDITSD = 2.827e-08 
    LALPHA1 = -6.1e-08 
    LBETA0 = -3.9e-08 
    LAIGC = -4.1e-11 
    LCIGC = 3.9e-09 
    LPIGCD = 3.3e-07 
    LNOFF = 4.2e-08 
    LVOFFCV = -2.6e-09 
    WCIT = 7.4e-11 
    WAT = -0.0016 
    WA0 = -5.624e-07 
    WAGS = 4.352e-08 
    WKETA = -9.53e-09 
    WKT1 = -8.1e-09 
    WK2 = 7.644e-09 
    WK3 = 5.7e-07 
    WDVTP0 = 4.6e-12 
    WDVT1 = -2.337e-08 
    WVTH0 = -2.768e-08 
    WUA = 6.315e-17 
    WUB = -5e-27 
    WUC = 7.627e-18 
    WU0 = 5.05e-10 
    WUTE = -1.4e-08 
    WETA0 = 2.1e-08 
    WBETA0 = -3.536e-08 
    WAIGC = 3.18e-11 
    PCIT = -9.402e-18 
    PVSAT = -1.32e-10 
    PA0 = 6.304e-14 
    PAGS = -7.124e-14 
    PKETA = 1.19e-15 
    PKT1 = -3e-17 
    PK2 = 1.809e-16 
    PK3 = 5.259e-15 
    PPE0 = 7.17e-22 
    PVTH0 = -1.123e-15 
    PUA = -1.7e-24 
    PUB = 7.1e-34 
    PU0 = -8.892e-17 
    PUTE = 1.224e-15 
    PVOFF = 1.498e-16 
    PETA0 = -5.999e-16 
    PETAB = -3e-18 
    TNOM =  298.1 
    CGSO = 8.53e-11 
    CGDO = 8.53e-11 
    CGBO =      0 
    XPART =      1 
    RSH =     12 
    JSS = 2.193e-08 
    JSWS = 1.668e-14 
    JSWGS = 5.96e-13 
    PBS = 0.5355 
    MJS = 0.2719 
    PBSWS =  0.932 
    MJSWS = 0.2023 
    CJS = 0.001498 
    CJSWS = 5.011e-11 
    NJS = 0.9164 
    PBSWGS =   0.42 
    MJSWGS =    0.9 
    CJSWGS = 2.5e-10 
    XTIS =   3.38 
    JSD = 2.193e-08 
    JSWD = 1.668e-14 
    JSWGD = 5.96e-13 
    PBD = 0.5355 
    MJD = 0.2719 
    PBSWD =  0.932 
    MJSWD = 0.2023 
    CJD = 0.001498 
    CJSWD = 5.011e-11 
    NJD = 0.9164 
    PBSWGD =   0.42 
    MJSWGD =    0.9 
    CJSWGD = 2.5e-10 
    XTID =   3.38 
    LMLT =      1 
    WMLT =      1 
    LINT = 1.975e-09 
    LL = -2.412e-16 
    LLC =      0 
    LLN =   1.02 
    LW = -9.6e-16 
    LWC =      0 
    LWN =   1.02 
    LWL = 1.707e-23 
    LWLC =      0 
    LMIN = 3.6e-08 
    LMAX = 0.0001 
    WINT = -2.38e-08 
    WL = -9.271e-16 
    WLC =      0 
    WLN =   0.86 
    WW = 2.7e-16 
    WWC =      0 
    WWN =      1 
    WWL = 2.196e-22 
    WWLC =      0 
    WMIN = 1.08e-07 
    WMAX = 0.0001 
    NOIA = 8.7e+41 
    NOIB = 1.293e+25 
    NOIC = 1.1e+08 
    EM = 2.1e+07 
    EF =   0.98 
    AF =      1 
    KF =      0 
    TRS =      0 
    TRD =      0 
    TEMPMOD  =      0 
    LAMBDA   =      0 
    VTL      =  2e+05 m/s
    LC       =  5e-09 
    XN       =      3 
    LLAMBDA  =      0 
    LVTL     =      0 
    LXN      =      0 
    WLAMBDA  =      0 
    WVTL     =      0 
    WXN      =      0 
    PLAMBDA  =      0 
    PVTL     =      0 
    PXN      =      0 
    RNOIA    =  0.577 
    RNOIB    = 0.5164 
    SAREF(SA0) = 2.61e-07 m
    SBREF(SB0) = 2.61e-07 m
    WLOD     =      0 m
    KU0      = -1e-08 1/m
    KVSAT    =      1 
    KVTH0    = 1.2e-09 m
    TKU0     =      0 
    LLODKU0  =      1 
    WLODKU0  =      1 
    LLODVTH  =      1 
    WLODVTH  =      1 
    LKU0     =  1e-06 
    WKU0     =  2e-06 
    PKU0     =      0 
    LKVTH0   =  3e-08 
    WKVTH0   =  9e-08 
    PKVTH0   =      0 
    STK2     =      0 
    LODK2    =      1 
    STETA0   = -1.1e-09 
    LODETA0  =      1 
    LXRCRG1  =      0 
    WXRCRG1  =      0 
    PXRCRG1  =      0 
    LXRCRG2  =      0 
    WXRCRG2  =      0 
    PXRCRG2  =      0 
     *** UCB's BSIM4.4.0 new diode model is activated. ***
    *** UCB's Diode Model Parameters ***
    JTSS         =      0 
    JTSSWS       =      0 
    JTSSWGS      =  1e-07 
    JTSD         =      0 
    JTSSWD       =      0 
    JTSSWGD      =  1e-07 
    NJTS         =     20 
    NJTSSW       =     20 
    NJTSSWG      =     20 
    XTSS         =   0.02 
    XTSSWS       =   0.02 
    XTSSWGS      =   0.02 
    XTSD         =   0.02 
    XTSSWD       =   0.02 
    XTSSWGD      =   0.02 
    TNJTS        =      0 
    TNJTSSW      =      0 
    TNJTSSWG     =      0 
    VFBSDOFF     =      0 
    LVFBSDOFF    =      0 
    WVFBSDOFF    =      0 
    PVFBSDOFF    =      0 
    LINTNOI      =      0 
    VTSS         =     10 
    VTSD         =     10 
    VTSSWS       =     10 
    VTSSWD       =     10 
    VTSSWGS      =     10 
    VTSSWGD      =     10 
    TTDIOMOD     =      1 
     *** UCB's BSIM4.5.0 new model is activated. ***
    UD         =  1e+14 
    UD1        =      0 
    UP         =      0 
    LP         =  1e-08 
    TVOFF      =  0.003 
    TVFBSDOFF  =      0 
    RBPS0      =     50 
    RBPSL      =      0 
    RBPSW      =      0 
    RBPSNF     =      0 
    RBPD0      =     50 
    RBPDL      =      0 
    RBPDW      =      0 
    RBPDNF     =      0 
    RBPBX0     =    100 
    RBPBXL     =      0 
    RBPBXW     =      0 
    RBPBXNF    =      0 
    RBPBY0     =    100 
    RBPBYL     =      0 
    RBPBYW     =      0 
    RBPBYNF    =      0 
    RBSBX0     =    100 
    RBSBY0     =    100 
    RBDBX0     =    100 
    RBDBY0     =    100 
    RBSDBXL    =      0 
    RBSDBXW    =      0 
    RBSDBXNF   =      0 
    RBSDBYL    =      0 
    RBSDBYW    =      0 
    RBSDBYNF   =      0 
    LUD        =      0 
    LUD1       =      0 
    LUP        =      0 
    LLP        =      0 
    LTVOFF     = -4e-12 
    LTVFBSDOFF =      0 
    WUD        =      0 
    WUD1       =      0 
    WUP        =      0 
    WLP        =      0 
    WTVOFF     =      0 
    WTVFBSDOFF =      0 
    PUD        =      0 
    PUD1       =      0 
    PUP        =      0 
    PLP        =      0 
    PTVOFF     =      0 
    PTVFBSDOFF =      0 
    WEB        =      1 
    WEC        =      1 
    KVTH0WE    = 0.0012 
    K2WE       =      0 
    KU0WE      = -0.0003 
    SCREF      =  1e-06 
    WPEMOD     =      1 
    LKVTH0WE   =      0 
    LK2WE      =      0 
    LKU0WE     =      0 
    WKVTH0WE   = -1.2e-10 
    WK2WE      =      0 
    WKU0WE     =      0 
    PKVTH0WE   =      0 
    PK2WE      =      0 
    PKU0WE     =      0 
 Model Name: plvt11ll_ckt_12  
 BSIM4 Model (Level 54)
    MOBMOD = 0
    BINUNIT = 2
    PARAMCHK = 1
    CAPMOD = 2
    DIOMOD = 2
    RDSMOD = 1
    TRNQSMOD = 0
    ACNQSMOD = 0
    RBODYMOD = 0
    RGATEMOD = 0
    PERMOD = 1
    GEOMOD = 0
    RGEOMOD = 1
    FNOIMOD = 1
    TNOIMOD = 0
    IGCMOD = 2
    IGBMOD = 1
    STIMOD = 1
    VBFWDMOD = 0
    VERSION =    4.5 
    TOXREF = 2.7e-09 
    TOXE = 2.7e-09 
    TOXP = 2.49e-09 
    TOXM = 2.7e-09 
    DTOX = 2.1e-10 
    EPSROX =    3.9 
    CDSC =      0 
    CDSCB =      0 
    CDSCD = 0.0005 
    CIT = 0.0001 
    NFACTOR =      1 
    XJ = 8.6e-08 
    VSAT = 1.2e+05 
    A0 =    0.9 
    AGS =    0.5 
    A1 =      0 
    A2 =      1 
    AT =  1e+04 
    KETA = -0.002 
    NSUB =  6e+16 
    NDEP =  1e+17 
    NSD =  1e+20 
    NGATE =  3e+21 
    GAMMA1 =      0 
    GAMMA2 =      0 
    VBX =      0 
    VBM =     -3 
    XT = 1.55e-07 
    K1 =    0.3 
    KT1 =  -0.12 
    KT1L = -4.6e-09 
    KT2 = -0.025 
    K2 =  -0.03 
    K3 =      1 
    K3B = 0.9348 
    LPE0 =      0 
    LPEB = 1.5e-08 
    DVTP0 =  4e-07 
    DVTP1 =      0 
    W0 =  1e-05 
    DVT0 =    0.1 
    DVT1 =    0.3 
    DVT2 =   0.19 
    DVT0W =  0.102 
    DVT1W = 5.3e+06 
    DVT2W = -0.032 
    DROUT =   0.56 
    DSUB =   0.56 
    VTH0 = -0.4029 
    EU =   1.67 
    UA = -7.4e-10 
    UA1 =  1e-09 
    UB = 1.65e-18 
    UB1 = -1e-18 
    UC = 2.5e-11 
    UC1 =  5e-11 
    U0 = 0.008818 
    UTE =   -0.8 
    VOFF = -0.1492 
    VOFFL =      0 
    MINV =  -0.35 
    FPROUT =    100 
    PDITS =   0.82 
    PDITSD =    0.7 
    PDITSL =  3e+06 
    DELTA =   0.01 
    RDSW =    200 
    RDSWMIN =      0 
    RDWMIN =      0 
    RSWMIN =      0 
    RDW =     95 
    RSW =     95 
    PRWG =      0 
    PRWB =      0 
    PRT =      0 
    ETA0 =  0.088 
    ETAB =  -0.01 
    PCLM =    0.1 
    PDIBLC1 =   0.05 
    PDIBLC2 =  0.001 
    PDIBLCB =      0 
    PSCBE1 = 4.24e+08 
    PSCBE2 =  1e-05 
    PVAG =      1 
    WR =      1 
    DWG =      0 
    DWB =      0 
    XW = 1.8e-08 
    XWREF = 1.8e-08 
    XL = 5.1e-09 
    XLREF = 5.1e-09 
    B0 =      0 
    B1 =      0 
    ALPHA0 =      0 
    ALPHA1 = 0.0028 
    AGIDL =      0 
    BGIDL = 2.3e+09 
    CGIDL =    0.5 
    PHIN =  0.065 
    EGIDL =    0.8 
    AIGC =  0.007 
    BIGC = 0.0006 
    CIGC =   0.03 
    AIGSD = 0.0059 
    BIGSD =      0 
    CIGSD =   0.03 
    AIGBACC =  0.014 
    BIGBACC = 0.00171 
    CIGBACC =  0.075 
    AIGBINV = 0.0111 
    BIGBINV = 0.000949 
    CIGBINV =  0.006 
    NIGC =      1 
    NIGBINV =      3 
    NIGBACC =      1 
    NTOX =      1 
    EIGBINV =    1.1 
    PIGCD =    2.8 
    POXEDGE =      1 
    XRCRG1 =     12 
    TNOIA =    1.5 
    TNOIB =    3.5 
    NTNOI =      1 
    XRCRG2 =      1 
    BETA0 =    7.4 
    IJTHDFWD =    0.1 
    IJTHSFWD =    0.1 
    IJTHDREV =    0.1 
    IJTHSREV =    0.1 
    XJBVD =      1 
    XJBVS =      1 
    BVD =   8.55 
    BVS =   8.55 
    VFB =     -1 
    GBMIN =  1e-12 
    RBDB =     50 
    RBPB =     50 
    RBSB =     50 
    RBPS =     50 
    RBPD =     50 
    CGSL = 6.5e-11 
    CGDL = 6.5e-11 
    CKAPPAS =    0.6 
    CKAPPAD =    0.6 
    CF = 7.44e-11 
    CLC =  1e-07 
    CLE =    0.6 
    DWC =      0 
    DLC = 8.1e-09 
    DLCIG =  4e-09 
    DWJ =      0 
    VFBCV =     -1 
    ACDE =    0.5 
    MOIN =    8.5 
    NOFF =    1.7 
    VOFFCV = -0.065 
    DMCG = 6.3e-08 
    DMCI = 1.98e-07 
    DMDG =      0 
    DMCGT =      0 
    XGW =      0 
    XGL =      0 
    RSHG =    0.1 
    NGCON =      1 
    TCJ = 0.0006843 
    TPB = 0.001006 
    TCJSW = 0.000349 
    TPBSW = 0.001967 
    TCJSWG = 0.0022 
    TPBSWG =  1e-05 
    SK0 =      0 
    SK1 =      0 
    SK2 =      0 
    SL =  2e-06 
    SW =  2e-06 
    K =      0 
    LCIT =  2e-10 
    LVSAT = -0.00172 
    LAT = -0.0006 
    LKETA =  2e-09 
    LK2 = -3.5e-09 
    LLPE0 = 2.53e-15 
    LDVT0 = 3.94e-09 
    LVTH0 = 3.26e-09 
    LUA = -3.2e-18 
    LUB = -1.1e-26 
    LUB1 =  5e-26 
    LUC = -1e-18 
    LU0 = -1.08e-10 
    LUTE =  3e-08 
    LVOFF = -2e-09 
    LMINV = 2.5e-08 
    LETA0 = -2.41e-10 
    LALPHA0 = 4.4e-17 
    LNOFF =  3e-08 
    WAGS =  4e-08 
    WKT1 = 1.1e-08 
    WVTH0 = 4.5e-09 
    WUA = -3.6e-17 
    WUB1 =  7e-26 
    WUTE =  3e-08 
    PCDSCD = -2e-18 
    PCIT = -6e-18 
    PVSAT =  1e-11 
    PAT =  1e-10 
    PKT1 = -7.1e-16 
    PKT2 =  3e-17 
    PVTH0 = -3.4e-16 
    PETA0 = -1.8e-16 
    TNOM =  298.1 
    CGSO =  6e-11 
    CGDO =  6e-11 
    CGBO =      0 
    XPART =      1 
    RSH =     12 
    JSS = 1.418e-08 
    JSWS = 1.2e-13 
    JSWGS = 1.53e-12 
    PBS =  0.731 
    MJS =  0.356 
    PBSWS =  0.982 
    MJSWS =  0.231 
    CJS = 0.001404 
    CJSWS = 5.484e-11 
    NJS =  0.998 
    PBSWGS =  0.204 
    MJSWGS = 0.9085 
    CJSWGS = 1.671e-10 
    XTIS =  6.685 
    JSD = 1.418e-08 
    JSWD = 1.2e-13 
    JSWGD = 1.53e-12 
    PBD =  0.731 
    MJD =  0.356 
    PBSWD =  0.982 
    MJSWD =  0.231 
    CJD = 0.001404 
    CJSWD = 5.484e-11 
    NJD =  0.998 
    PBSWGD =  0.204 
    MJSWGD = 0.9085 
    CJSWGD = 1.671e-10 
    XTID =  6.685 
    LMLT =      1 
    WMLT =      1 
    LINT = -2e-09 
    LL =  1e-17 
    LLC =      0 
    LLN =      1 
    LW =      0 
    LWC =      0 
    LWN =      1 
    LWL =      0 
    LWLC =      0 
    LMIN = 3.6e-08 
    LMAX = 0.0001 
    WINT = -6e-09 
    WL = -2e-16 
    WLC =      0 
    WLN =      1 
    WW = 2.5e-16 
    WWC =      0 
    WWN =   1.05 
    WWL = 1.8e-23 
    WWLC =      0 
    WMIN = 1.08e-07 
    WMAX = 0.0001 
    NOIA = 1.74e+42 
    NOIB = -1.55e+26 
    NOIC = 1.24e+10 
    EM = 1.14e+08 
    EF =    1.1 
    AF =      1 
    KF =      0 
    TRS =      0 
    TRD =      0 
    TEMPMOD  =      0 
    LAMBDA   =      0 
    VTL      =  2e+05 m/s
    LC       =  5e-09 
    XN       =      3 
    LLAMBDA  =      0 
    LVTL     =      0 
    LXN      =      0 
    WLAMBDA  =      0 
    WVTL     =      0 
    WXN      =      0 
    PLAMBDA  =      0 
    PVTL     =      0 
    PXN      =      0 
    RNOIA    =  0.577 
    RNOIB    = 0.5164 
    SAREF(SA0) = 2.61e-07 m
    SBREF(SB0) = 2.61e-07 m
    WLOD     =      0 m
    KU0      =  5e-10 1/m
    KVSAT    =      1 
    KVTH0    = -1.5e-09 m
    TKU0     =      0 
    LLODKU0  =      1 
    WLODKU0  =      1 
    LLODVTH  =      1 
    WLODVTH  =      1 
    LKU0     =      0 
    WKU0     =      0 
    PKU0     = -1e-15 
    LKVTH0   = -1.8e-08 
    WKVTH0   =      0 
    PKVTH0   =  1e-15 
    STK2     =      0 
    LODK2    =      1 
    STETA0   = -5e-10 
    LODETA0  =      1 
    LXRCRG1  =      0 
    WXRCRG1  =      0 
    PXRCRG1  =      0 
    LXRCRG2  =      0 
    WXRCRG2  =      0 
    PXRCRG2  =      0 
     *** UCB's BSIM4.4.0 new diode model is activated. ***
    *** UCB's Diode Model Parameters ***
    JTSS         =      0 
    JTSSWS       =      0 
    JTSSWGS      =  1e-09 
    JTSD         =      0 
    JTSSWD       =      0 
    JTSSWGD      =  1e-09 
    NJTS         =     20 
    NJTSSW       =     20 
    NJTSSWG      =     20 
    XTSS         =   0.02 
    XTSSWS       =   0.02 
    XTSSWGS      =    0.4 
    XTSD         =   0.02 
    XTSSWD       =   0.02 
    XTSSWGD      =    0.4 
    TNJTS        =      0 
    TNJTSSW      =      0 
    TNJTSSWG     =      0 
    VFBSDOFF     =      0 
    LVFBSDOFF    =      0 
    WVFBSDOFF    =      0 
    PVFBSDOFF    =      0 
    LINTNOI      = -7.17e-09 
    VTSS         =     10 
    VTSD         =     10 
    VTSSWS       =     10 
    VTSSWD       =     10 
    VTSSWGS      =     10 
    VTSSWGD      =     10 
    TTDIOMOD     =      1 
     *** UCB's BSIM4.5.0 new model is activated. ***
    UD         =      0 
    UD1        =      0 
    UP         =   0.08 
    LP         =  1e-06 
    TVOFF      =  0.004 
    TVFBSDOFF  =      0 
    RBPS0      =     50 
    RBPSL      =      0 
    RBPSW      =      0 
    RBPSNF     =      0 
    RBPD0      =     50 
    RBPDL      =      0 
    RBPDW      =      0 
    RBPDNF     =      0 
    RBPBX0     =    100 
    RBPBXL     =      0 
    RBPBXW     =      0 
    RBPBXNF    =      0 
    RBPBY0     =    100 
    RBPBYL     =      0 
    RBPBYW     =      0 
    RBPBYNF    =      0 
    RBSBX0     =    100 
    RBSBY0     =    100 
    RBDBX0     =    100 
    RBDBY0     =    100 
    RBSDBXL    =      0 
    RBSDBXW    =      0 
    RBSDBXNF   =      0 
    RBSDBYL    =      0 
    RBSDBYW    =      0 
    RBSDBYNF   =      0 
    LUD        =      0 
    LUD1       =      0 
    LUP        =      0 
    LLP        =      0 
    LTVOFF     =      0 
    LTVFBSDOFF =      0 
    WUD        =      0 
    WUD1       =      0 
    WUP        =      0 
    WLP        =      0 
    WTVOFF     =  2e-10 
    WTVFBSDOFF =      0 
    PUD        =      0 
    PUD1       =      0 
    PUP        =      0 
    PLP        =      0 
    PTVOFF     = -2.6e-17 
    PTVFBSDOFF =      0 
    WEB        =      1 
    WEC        =      1 
    KVTH0WE    = -0.0008 
    K2WE       =      0 
    KU0WE      = -0.0015 
    SCREF      =  1e-06 
    WPEMOD     =      1 
    LKVTH0WE   =      0 
    LK2WE      =      0 
    LKU0WE     =      0 
    WKVTH0WE   = 7.5e-11 
    WK2WE      =      0 
    WKU0WE     =  8e-11 
    PKVTH0WE   =      0 
    PK2WE      =      0 
    PKU0WE     =      0 
 Model Name: plvt11ll_ckt_13  
 BSIM4 Model (Level 54)
    MOBMOD = 0
    BINUNIT = 2
    PARAMCHK = 1
    CAPMOD = 2
    DIOMOD = 2
    RDSMOD = 1
    TRNQSMOD = 0
    ACNQSMOD = 0
    RBODYMOD = 0
    RGATEMOD = 0
    PERMOD = 1
    GEOMOD = 0
    RGEOMOD = 1
    FNOIMOD = 1
    TNOIMOD = 0
    IGCMOD = 2
    IGBMOD = 1
    STIMOD = 1
    VBFWDMOD = 0
    VERSION =    4.5 
    TOXREF = 2.7e-09 
    TOXE = 2.7e-09 
    TOXP = 2.49e-09 
    TOXM = 2.7e-09 
    DTOX = 2.1e-10 
    EPSROX =    3.9 
    CDSC =      0 
    CDSCB =      0 
    CDSCD = 0.0005 
    CIT = 0.0001 
    NFACTOR =      1 
    XJ = 8.6e-08 
    VSAT = 1.2e+05 
    A0 =    0.9 
    AGS =    0.5 
    A1 =      0 
    A2 =      1 
    AT =  1e+04 
    KETA = -0.002 
    NSUB =  6e+16 
    NDEP =  1e+17 
    NSD =  1e+20 
    NGATE =  3e+21 
    GAMMA1 =      0 
    GAMMA2 =      0 
    VBX =      0 
    VBM =     -3 
    XT = 1.55e-07 
    K1 =    0.3 
    KT1 =  -0.12 
    KT1L = -4.6e-09 
    KT2 = -0.025 
    K2 =  -0.03 
    K3 =      1 
    K3B = 0.9348 
    LPE0 =      0 
    LPEB = 1.5e-08 
    DVTP0 =  4e-07 
    DVTP1 =      0 
    W0 =  1e-05 
    DVT0 =    0.1 
    DVT1 =    0.3 
    DVT2 =   0.19 
    DVT0W =  0.102 
    DVT1W = 5.3e+06 
    DVT2W = -0.032 
    DROUT =   0.56 
    DSUB =   0.56 
    VTH0 = -0.393 
    EU =   1.67 
    UA = -7.4e-10 
    UA1 =  1e-09 
    UB = 1.65e-18 
    UB1 = -1e-18 
    UC = 2.5e-11 
    UC1 =  5e-11 
    U0 = 0.008765 
    UTE =   -0.8 
    VOFF = -0.1515 
    VOFFL =      0 
    MINV =  -0.35 
    FPROUT =    100 
    PDITS =   0.82 
    PDITSD =    0.7 
    PDITSL =  3e+06 
    DELTA =   0.01 
    RDSW =    200 
    RDSWMIN =      0 
    RDWMIN =      0 
    RSWMIN =      0 
    RDW =     95 
    RSW =     95 
    PRWG =      0 
    PRWB =      0 
    PRT =      0 
    ETA0 =  0.088 
    ETAB =  -0.01 
    PCLM =    0.1 
    PDIBLC1 =   0.05 
    PDIBLC2 =  0.001 
    PDIBLCB =      0 
    PSCBE1 = 4.24e+08 
    PSCBE2 =  1e-05 
    PVAG =      1 
    WR =      1 
    DWG =      0 
    DWB =      0 
    XW = 1.8e-08 
    XWREF = 1.8e-08 
    XL = 5.1e-09 
    XLREF = 5.1e-09 
    B0 =      0 
    B1 =      0 
    ALPHA0 =      0 
    ALPHA1 = 0.0028 
    AGIDL =      0 
    BGIDL = 2.3e+09 
    CGIDL =    0.5 
    PHIN =  0.065 
    EGIDL =    0.8 
    AIGC =  0.007 
    BIGC = 0.0006 
    CIGC =   0.03 
    AIGSD = 0.0059 
    BIGSD =      0 
    CIGSD =   0.03 
    AIGBACC =  0.014 
    BIGBACC = 0.00171 
    CIGBACC =  0.075 
    AIGBINV = 0.0111 
    BIGBINV = 0.000949 
    CIGBINV =  0.006 
    NIGC =      1 
    NIGBINV =      3 
    NIGBACC =      1 
    NTOX =      1 
    EIGBINV =    1.1 
    PIGCD =    2.8 
    POXEDGE =      1 
    XRCRG1 =     12 
    TNOIA =    1.5 
    TNOIB =    3.5 
    NTNOI =      1 
    XRCRG2 =      1 
    BETA0 =    7.4 
    IJTHDFWD =    0.1 
    IJTHSFWD =    0.1 
    IJTHDREV =    0.1 
    IJTHSREV =    0.1 
    XJBVD =      1 
    XJBVS =      1 
    BVD =   8.55 
    BVS =   8.55 
    VFB =     -1 
    GBMIN =  1e-12 
    RBDB =     50 
    RBPB =     50 
    RBSB =     50 
    RBPS =     50 
    RBPD =     50 
    CGSL = 6.5e-11 
    CGDL = 6.5e-11 
    CKAPPAS =    0.6 
    CKAPPAD =    0.6 
    CF = 7.44e-11 
    CLC =  1e-07 
    CLE =    0.6 
    DWC =      0 
    DLC = 8.1e-09 
    DLCIG =  4e-09 
    DWJ =      0 
    VFBCV =     -1 
    ACDE =    0.5 
    MOIN =    8.5 
    NOFF =    1.7 
    VOFFCV = -0.065 
    DMCG = 6.3e-08 
    DMCI = 1.98e-07 
    DMDG =      0 
    DMCGT =      0 
    XGW =      0 
    XGL =      0 
    RSHG =    0.1 
    NGCON =      1 
    TCJ = 0.0006843 
    TPB = 0.001006 
    TCJSW = 0.000349 
    TPBSW = 0.001967 
    TCJSWG = 0.0022 
    TPBSWG =  1e-05 
    SK0 =      0 
    SK1 =      0 
    SK2 =      0 
    SL =  2e-06 
    SW =  2e-06 
    K =      0 
    LCIT =  2e-10 
    LVSAT = -0.00172 
    LAT = -0.0006 
    LKETA =  2e-09 
    LK2 = -3.5e-09 
    LLPE0 = 2.53e-15 
    LDVT0 = 3.94e-09 
    LVTH0 = 3.26e-09 
    LUA = -3.2e-18 
    LUB = -1.1e-26 
    LUB1 =  5e-26 
    LUC = -1e-18 
    LU0 = -1.08e-10 
    LUTE =  3e-08 
    LVOFF = -2e-09 
    LMINV = 2.5e-08 
    LETA0 = -2.41e-10 
    LALPHA0 = 4.4e-17 
    LNOFF =  3e-08 
    WAGS =  4e-08 
    WKT1 = 1.1e-08 
    WVTH0 = 4.5e-09 
    WUA = -3.6e-17 
    WUB1 =  7e-26 
    WUTE =  3e-08 
    PCDSCD = -2e-18 
    PCIT = -6e-18 
    PVSAT =  1e-11 
    PAT =  1e-10 
    PKT1 = -7.1e-16 
    PKT2 =  3e-17 
    PVTH0 = -3.4e-16 
    PETA0 = -1.8e-16 
    TNOM =  298.1 
    CGSO =  6e-11 
    CGDO =  6e-11 
    CGBO =      0 
    XPART =      1 
    RSH =     12 
    JSS = 1.418e-08 
    JSWS = 1.2e-13 
    JSWGS = 1.53e-12 
    PBS =  0.731 
    MJS =  0.356 
    PBSWS =  0.982 
    MJSWS =  0.231 
    CJS = 0.001404 
    CJSWS = 5.484e-11 
    NJS =  0.998 
    PBSWGS =  0.204 
    MJSWGS = 0.9085 
    CJSWGS = 1.671e-10 
    XTIS =  6.685 
    JSD = 1.418e-08 
    JSWD = 1.2e-13 
    JSWGD = 1.53e-12 
    PBD =  0.731 
    MJD =  0.356 
    PBSWD =  0.982 
    MJSWD =  0.231 
    CJD = 0.001404 
    CJSWD = 5.484e-11 
    NJD =  0.998 
    PBSWGD =  0.204 
    MJSWGD = 0.9085 
    CJSWGD = 1.671e-10 
    XTID =  6.685 
    LMLT =      1 
    WMLT =      1 
    LINT = -2e-09 
    LL =  1e-17 
    LLC =      0 
    LLN =      1 
    LW =      0 
    LWC =      0 
    LWN =      1 
    LWL =      0 
    LWLC =      0 
    LMIN = 3.6e-08 
    LMAX = 0.0001 
    WINT = -6e-09 
    WL = -2e-16 
    WLC =      0 
    WLN =      1 
    WW = 2.5e-16 
    WWC =      0 
    WWN =   1.05 
    WWL = 1.8e-23 
    WWLC =      0 
    WMIN = 1.08e-07 
    WMAX = 0.0001 
    NOIA = 1.74e+42 
    NOIB = -1.55e+26 
    NOIC = 1.24e+10 
    EM = 1.14e+08 
    EF =    1.1 
    AF =      1 
    KF =      0 
    TRS =      0 
    TRD =      0 
    TEMPMOD  =      0 
    LAMBDA   =      0 
    VTL      =  2e+05 m/s
    LC       =  5e-09 
    XN       =      3 
    LLAMBDA  =      0 
    LVTL     =      0 
    LXN      =      0 
    WLAMBDA  =      0 
    WVTL     =      0 
    WXN      =      0 
    PLAMBDA  =      0 
    PVTL     =      0 
    PXN      =      0 
    RNOIA    =  0.577 
    RNOIB    = 0.5164 
    SAREF(SA0) = 2.61e-07 m
    SBREF(SB0) = 2.61e-07 m
    WLOD     =      0 m
    KU0      =  5e-10 1/m
    KVSAT    =      1 
    KVTH0    = -1.5e-09 m
    TKU0     =      0 
    LLODKU0  =      1 
    WLODKU0  =      1 
    LLODVTH  =      1 
    WLODVTH  =      1 
    LKU0     =      0 
    WKU0     =      0 
    PKU0     = -1e-15 
    LKVTH0   = -1.8e-08 
    WKVTH0   =      0 
    PKVTH0   =  1e-15 
    STK2     =      0 
    LODK2    =      1 
    STETA0   = -5e-10 
    LODETA0  =      1 
    LXRCRG1  =      0 
    WXRCRG1  =      0 
    PXRCRG1  =      0 
    LXRCRG2  =      0 
    WXRCRG2  =      0 
    PXRCRG2  =      0 
     *** UCB's BSIM4.4.0 new diode model is activated. ***
    *** UCB's Diode Model Parameters ***
    JTSS         =      0 
    JTSSWS       =      0 
    JTSSWGS      =  1e-09 
    JTSD         =      0 
    JTSSWD       =      0 
    JTSSWGD      =  1e-09 
    NJTS         =     20 
    NJTSSW       =     20 
    NJTSSWG      =     20 
    XTSS         =   0.02 
    XTSSWS       =   0.02 
    XTSSWGS      =    0.4 
    XTSD         =   0.02 
    XTSSWD       =   0.02 
    XTSSWGD      =    0.4 
    TNJTS        =      0 
    TNJTSSW      =      0 
    TNJTSSWG     =      0 
    VFBSDOFF     =      0 
    LVFBSDOFF    =      0 
    WVFBSDOFF    =      0 
    PVFBSDOFF    =      0 
    LINTNOI      = -7.17e-09 
    VTSS         =     10 
    VTSD         =     10 
    VTSSWS       =     10 
    VTSSWD       =     10 
    VTSSWGS      =     10 
    VTSSWGD      =     10 
    TTDIOMOD     =      1 
     *** UCB's BSIM4.5.0 new model is activated. ***
    UD         =      0 
    UD1        =      0 
    UP         =   0.08 
    LP         =  1e-06 
    TVOFF      =  0.004 
    TVFBSDOFF  =      0 
    RBPS0      =     50 
    RBPSL      =      0 
    RBPSW      =      0 
    RBPSNF     =      0 
    RBPD0      =     50 
    RBPDL      =      0 
    RBPDW      =      0 
    RBPDNF     =      0 
    RBPBX0     =    100 
    RBPBXL     =      0 
    RBPBXW     =      0 
    RBPBXNF    =      0 
    RBPBY0     =    100 
    RBPBYL     =      0 
    RBPBYW     =      0 
    RBPBYNF    =      0 
    RBSBX0     =    100 
    RBSBY0     =    100 
    RBDBX0     =    100 
    RBDBY0     =    100 
    RBSDBXL    =      0 
    RBSDBXW    =      0 
    RBSDBXNF   =      0 
    RBSDBYL    =      0 
    RBSDBYW    =      0 
    RBSDBYNF   =      0 
    LUD        =      0 
    LUD1       =      0 
    LUP        =      0 
    LLP        =      0 
    LTVOFF     =      0 
    LTVFBSDOFF =      0 
    WUD        =      0 
    WUD1       =      0 
    WUP        =      0 
    WLP        =      0 
    WTVOFF     =  2e-10 
    WTVFBSDOFF =      0 
    PUD        =      0 
    PUD1       =      0 
    PUP        =      0 
    PLP        =      0 
    PTVOFF     = -2.6e-17 
    PTVFBSDOFF =      0 
    WEB        =      1 
    WEC        =      1 
    KVTH0WE    = -0.0008 
    K2WE       =      0 
    KU0WE      = -0.0015 
    SCREF      =  1e-06 
    WPEMOD     =      1 
    LKVTH0WE   =      0 
    LK2WE      =      0 
    LKU0WE     =      0 
    WKVTH0WE   = 7.5e-11 
    WK2WE      =      0 
    WKU0WE     =  8e-11 
    PKVTH0WE   =      0 
    PK2WE      =      0 
    PKU0WE     =      0 
 Model Name: nlvt11ll_ckt_12  
 BSIM4 Model (Level 54)
    MOBMOD = 0
    BINUNIT = 2
    PARAMCHK = 1
    CAPMOD = 2
    DIOMOD = 2
    RDSMOD = 1
    TRNQSMOD = 0
    ACNQSMOD = 0
    RBODYMOD = 0
    RGATEMOD = 0
    PERMOD = 1
    GEOMOD = 0
    RGEOMOD = 1
    FNOIMOD = 1
    TNOIMOD = 0
    IGCMOD = 2
    IGBMOD = 1
    STIMOD = 1
    VBFWDMOD = 0
    VERSION =    4.5 
    TOXREF = 2.37e-09 
    TOXE = 2.37e-09 
    TOXP = 2.262e-09 
    TOXM = 2.37e-09 
    DTOX = 1.08e-10 
    EPSROX =    3.9 
    CDSC = 0.006659 
    CDSCB =  5e-05 
    CDSCD =  2e-05 
    CIT = 0.00155 
    NFACTOR =    1.3 
    XJ = 9.7e-08 
    VSAT = 1.02e+05 
    A0 =    2.3 
    AGS = 0.7794 
    A1 =      0 
    A2 =      1 
    AT =  3e+04 
    KETA = -0.02036 
    NSUB =  6e+16 
    NDEP = 1.5e+17 
    NSD =  1e+20 
    NGATE =  2e+21 
    GAMMA1 =      0 
    GAMMA2 =      0 
    VBX =      0 
    VBM =     -3 
    XT = 1.55e-07 
    K1 = 0.3103 
    KT1 = -0.228 
    KT1L =      0 
    KT2 =  -0.04 
    K2 = -0.01406 
    K3 =    1.5 
    K3B =   5.64 
    LPE0 =      0 
    LPEB =      0 
    DVTP0 = 4.816e-06 
    DVTP1 =      0 
    W0 =      0 
    DVT0 =      0 
    DVT1 =  1.919 
    DVT2 =  0.027 
    DVT0W =      0 
    DVT1W = 5.724e+06 
    DVT2W = -0.016 
    DROUT =   0.56 
    DSUB =   0.56 
    VTH0 = 0.3065 
    EU =   1.67 
    UA = -1.02e-09 
    UA1 = 1.612e-09 
    UB = 1.8e-18 
    UB1 = -1.46e-18 
    UC = 6.667e-11 
    UC1 = 5.2e-11 
    U0 = 0.02605 
    UTE =  -1.03 
    VOFF = -0.1783 
    VOFFL = -1e-09 
    MINV = -0.3522 
    FPROUT =    100 
    PDITS = 0.9162 
    PDITSD = 0.4067 
    PDITSL = 4.357e+06 
    DELTA = 0.01076 
    RDSW =    200 
    RDSWMIN =      0 
    RDWMIN =      0 
    RSWMIN =      0 
    RDW =     24 
    RSW =     24 
    PRWG =      1 
    PRWB =      0 
    PRT =      0 
    ETA0 =  0.001 
    ETAB = -0.2451 
    PCLM = 0.005431 
    PDIBLC1 =      0 
    PDIBLC2 = 0.006266 
    PDIBLCB =      0 
    PSCBE1 = 6.24e+08 
    PSCBE2 =  1e-05 
    PVAG =      0 
    WR =      1 
    DWG =      0 
    DWB =      0 
    XW = 1.7e-08 
    XWREF = 1.7e-08 
    XL = 5.8e-09 
    XLREF = 5.8e-09 
    B0 = 2.16e-08 
    B1 =      0 
    ALPHA0 = 7.286e-08 
    ALPHA1 =  1.272 
    AGIDL =  2e-12 
    BGIDL = 3.6e+08 
    CGIDL =  15.21 
    PHIN = 0.1344 
    EGIDL =      0 
    AIGC = 0.0122 
    BIGC = 0.00176 
    CIGC = 0.04108 
    AIGSD = 0.01043 
    BIGSD = 0.00045 
    CIGSD =      0 
    AIGBACC = 0.02487 
    BIGBACC = 0.00171 
    CIGBACC =  0.075 
    AIGBINV = 0.0111 
    BIGBINV = 0.000949 
    CIGBINV =  0.006 
    NIGC =   2.43 
    NIGBINV =      3 
    NIGBACC =      1 
    NTOX =      1 
    EIGBINV =    1.1 
    PIGCD =  3.616 
    POXEDGE =      1 
    XRCRG1 =     12 
    TNOIA =    1.5 
    TNOIB =    3.5 
    NTNOI =      1 
    XRCRG2 =      1 
    BETA0 =  13.47 
    IJTHDFWD =    0.1 
    IJTHSFWD =    0.1 
    IJTHDREV =    0.1 
    IJTHSREV =    0.1 
    XJBVD =      1 
    XJBVS =      1 
    BVD =    9.3 
    BVS =    9.3 
    VFB =     -1 
    GBMIN =  1e-12 
    RBDB =     50 
    RBPB =     50 
    RBSB =     50 
    RBPS =     50 
    RBPD =     50 
    CGSL = 5.7e-11 
    CGDL = 5.7e-11 
    CKAPPAS =    0.6 
    CKAPPAD =    0.6 
    CF = 7.715e-11 
    CLC =  1e-07 
    CLE =    0.6 
    DWC =      0 
    DLC = 7.92e-09 
    DLCIG = 3.5e-10 
    DWJ =      0 
    VFBCV =     -1 
    ACDE = 0.2778 
    MOIN =    5.4 
    NOFF =  2.088 
    VOFFCV = -0.1165 
    DMCG = 6.3e-08 
    DMCI = 1.98e-07 
    DMDG =      0 
    DMCGT =      0 
    XGW =      0 
    XGL =      0 
    RSHG =    0.1 
    NGCON =      1 
    TCJ = 0.0006309 
    TPB = 0.000957 
    TCJSW = 0.000644 
    TPBSW = 0.000644 
    TCJSWG = 0.000582 
    TPBSWG = 0.000353 
    SK0 =      0 
    SK1 =      0 
    SK2 =      0 
    SL =  2e-06 
    SW =  2e-06 
    K =      0 
    LCIT = 1.709e-10 
    LVSAT = 0.001673 
    LA0 = 7.943e-08 
    LAGS = 4.714e-07 
    LKETA = 3.936e-09 
    LKT1 = -3.26e-09 
    LKT2 =  5e-10 
    LK2 = 2.691e-10 
    LLPE0 = 5.548e-15 
    LDVT0 = 5.368e-07 
    LDVT1 = -6.112e-08 
    LVTH0 = -6.001e-09 
    LUA = -1.2e-18 
    LUB = 1.31e-25 
    LUB1 =  5e-26 
    LUC = 1.191e-17 
    LUC1 = 1.2e-17 
    LU0 = 1.66e-09 
    LUTE = 4.04e-08 
    LVOFF = -1.893e-09 
    LMINV = 6.117e-09 
    LDELTA = 4.581e-09 
    LETA0 = 9.64e-09 
    LETAB = 1.11e-08 
    LPDIBLC2 = -3.06e-10 
    LPDITS = -4.734e-08 
    LPDITSD = 2.827e-08 
    LALPHA1 = -6.1e-08 
    LBETA0 = -3.9e-08 
    LAIGC = -4.1e-11 
    LCIGC = 3.9e-09 
    LPIGCD = 3.3e-07 
    LNOFF = 4.2e-08 
    LVOFFCV = -2.6e-09 
    WCIT = 7.4e-11 
    WAT = -0.0016 
    WA0 = -5.624e-07 
    WAGS = 4.352e-08 
    WKETA = -9.53e-09 
    WKT1 = -8.1e-09 
    WK2 = 7.644e-09 
    WK3 = 5.7e-07 
    WDVTP0 = 4.6e-12 
    WDVT1 = -2.337e-08 
    WVTH0 = -2.768e-08 
    WUA = 6.315e-17 
    WUB = -5e-27 
    WUC = 7.627e-18 
    WU0 = 5.05e-10 
    WUTE = -1.4e-08 
    WETA0 = 2.1e-08 
    WBETA0 = -3.536e-08 
    WAIGC = 3.18e-11 
    PCIT = -9.402e-18 
    PVSAT = -1.32e-10 
    PA0 = 6.304e-14 
    PAGS = -7.124e-14 
    PKETA = 1.19e-15 
    PKT1 = -3e-17 
    PK2 = 1.809e-16 
    PK3 = 5.259e-15 
    PPE0 = 7.17e-22 
    PVTH0 = -1.123e-15 
    PUA = -1.7e-24 
    PUB = 7.1e-34 
    PU0 = -8.892e-17 
    PUTE = 1.224e-15 
    PVOFF = 1.498e-16 
    PETA0 = -5.999e-16 
    PETAB = -3e-18 
    TNOM =  298.1 
    CGSO = 8.53e-11 
    CGDO = 8.53e-11 
    CGBO =      0 
    XPART =      1 
    RSH =     12 
    JSS = 2.193e-08 
    JSWS = 1.668e-14 
    JSWGS = 5.96e-13 
    PBS = 0.5355 
    MJS = 0.2719 
    PBSWS =  0.932 
    MJSWS = 0.2023 
    CJS = 0.001498 
    CJSWS = 5.011e-11 
    NJS = 0.9164 
    PBSWGS =   0.42 
    MJSWGS =    0.9 
    CJSWGS = 2.5e-10 
    XTIS =   3.38 
    JSD = 2.193e-08 
    JSWD = 1.668e-14 
    JSWGD = 5.96e-13 
    PBD = 0.5355 
    MJD = 0.2719 
    PBSWD =  0.932 
    MJSWD = 0.2023 
    CJD = 0.001498 
    CJSWD = 5.011e-11 
    NJD = 0.9164 
    PBSWGD =   0.42 
    MJSWGD =    0.9 
    CJSWGD = 2.5e-10 
    XTID =   3.38 
    LMLT =      1 
    WMLT =      1 
    LINT = 1.975e-09 
    LL = -2.412e-16 
    LLC =      0 
    LLN =   1.02 
    LW = -9.6e-16 
    LWC =      0 
    LWN =   1.02 
    LWL = 1.707e-23 
    LWLC =      0 
    LMIN = 3.6e-08 
    LMAX = 0.0001 
    WINT = -2.38e-08 
    WL = -9.271e-16 
    WLC =      0 
    WLN =   0.86 
    WW = 2.7e-16 
    WWC =      0 
    WWN =      1 
    WWL = 2.196e-22 
    WWLC =      0 
    WMIN = 1.08e-07 
    WMAX = 0.0001 
    NOIA = 8.7e+41 
    NOIB = 1.293e+25 
    NOIC = 1.1e+08 
    EM = 2.1e+07 
    EF =   0.98 
    AF =      1 
    KF =      0 
    TRS =      0 
    TRD =      0 
    TEMPMOD  =      0 
    LAMBDA   =      0 
    VTL      =  2e+05 m/s
    LC       =  5e-09 
    XN       =      3 
    LLAMBDA  =      0 
    LVTL     =      0 
    LXN      =      0 
    WLAMBDA  =      0 
    WVTL     =      0 
    WXN      =      0 
    PLAMBDA  =      0 
    PVTL     =      0 
    PXN      =      0 
    RNOIA    =  0.577 
    RNOIB    = 0.5164 
    SAREF(SA0) = 2.61e-07 m
    SBREF(SB0) = 2.61e-07 m
    WLOD     =      0 m
    KU0      = -1e-08 1/m
    KVSAT    =      1 
    KVTH0    = 1.2e-09 m
    TKU0     =      0 
    LLODKU0  =      1 
    WLODKU0  =      1 
    LLODVTH  =      1 
    WLODVTH  =      1 
    LKU0     =  1e-06 
    WKU0     =  2e-06 
    PKU0     =      0 
    LKVTH0   =  3e-08 
    WKVTH0   =  9e-08 
    PKVTH0   =      0 
    STK2     =      0 
    LODK2    =      1 
    STETA0   = -1.1e-09 
    LODETA0  =      1 
    LXRCRG1  =      0 
    WXRCRG1  =      0 
    PXRCRG1  =      0 
    LXRCRG2  =      0 
    WXRCRG2  =      0 
    PXRCRG2  =      0 
     *** UCB's BSIM4.4.0 new diode model is activated. ***
    *** UCB's Diode Model Parameters ***
    JTSS         =      0 
    JTSSWS       =      0 
    JTSSWGS      =  1e-07 
    JTSD         =      0 
    JTSSWD       =      0 
    JTSSWGD      =  1e-07 
    NJTS         =     20 
    NJTSSW       =     20 
    NJTSSWG      =     20 
    XTSS         =   0.02 
    XTSSWS       =   0.02 
    XTSSWGS      =   0.02 
    XTSD         =   0.02 
    XTSSWD       =   0.02 
    XTSSWGD      =   0.02 
    TNJTS        =      0 
    TNJTSSW      =      0 
    TNJTSSWG     =      0 
    VFBSDOFF     =      0 
    LVFBSDOFF    =      0 
    WVFBSDOFF    =      0 
    PVFBSDOFF    =      0 
    LINTNOI      =      0 
    VTSS         =     10 
    VTSD         =     10 
    VTSSWS       =     10 
    VTSSWD       =     10 
    VTSSWGS      =     10 
    VTSSWGD      =     10 
    TTDIOMOD     =      1 
     *** UCB's BSIM4.5.0 new model is activated. ***
    UD         =  1e+14 
    UD1        =      0 
    UP         =      0 
    LP         =  1e-08 
    TVOFF      =  0.003 
    TVFBSDOFF  =      0 
    RBPS0      =     50 
    RBPSL      =      0 
    RBPSW      =      0 
    RBPSNF     =      0 
    RBPD0      =     50 
    RBPDL      =      0 
    RBPDW      =      0 
    RBPDNF     =      0 
    RBPBX0     =    100 
    RBPBXL     =      0 
    RBPBXW     =      0 
    RBPBXNF    =      0 
    RBPBY0     =    100 
    RBPBYL     =      0 
    RBPBYW     =      0 
    RBPBYNF    =      0 
    RBSBX0     =    100 
    RBSBY0     =    100 
    RBDBX0     =    100 
    RBDBY0     =    100 
    RBSDBXL    =      0 
    RBSDBXW    =      0 
    RBSDBXNF   =      0 
    RBSDBYL    =      0 
    RBSDBYW    =      0 
    RBSDBYNF   =      0 
    LUD        =      0 
    LUD1       =      0 
    LUP        =      0 
    LLP        =      0 
    LTVOFF     = -4e-12 
    LTVFBSDOFF =      0 
    WUD        =      0 
    WUD1       =      0 
    WUP        =      0 
    WLP        =      0 
    WTVOFF     =      0 
    WTVFBSDOFF =      0 
    PUD        =      0 
    PUD1       =      0 
    PUP        =      0 
    PLP        =      0 
    PTVOFF     =      0 
    PTVFBSDOFF =      0 
    WEB        =      1 
    WEC        =      1 
    KVTH0WE    = 0.0012 
    K2WE       =      0 
    KU0WE      = -0.0003 
    SCREF      =  1e-06 
    WPEMOD     =      1 
    LKVTH0WE   =      0 
    LK2WE      =      0 
    LKU0WE     =      0 
    WKVTH0WE   = -1.2e-10 
    WK2WE      =      0 
    WKU0WE     =      0 
    PKVTH0WE   =      0 
    PK2WE      =      0 
    PKU0WE     =      0 
 Model Name: nlvt11ll_ckt_13  
 BSIM4 Model (Level 54)
    MOBMOD = 0
    BINUNIT = 2
    PARAMCHK = 1
    CAPMOD = 2
    DIOMOD = 2
    RDSMOD = 1
    TRNQSMOD = 0
    ACNQSMOD = 0
    RBODYMOD = 0
    RGATEMOD = 0
    PERMOD = 1
    GEOMOD = 0
    RGEOMOD = 1
    FNOIMOD = 1
    TNOIMOD = 0
    IGCMOD = 2
    IGBMOD = 1
    STIMOD = 1
    VBFWDMOD = 0
    VERSION =    4.5 
    TOXREF = 2.37e-09 
    TOXE = 2.37e-09 
    TOXP = 2.262e-09 
    TOXM = 2.37e-09 
    DTOX = 1.08e-10 
    EPSROX =    3.9 
    CDSC = 0.006659 
    CDSCB =  5e-05 
    CDSCD =  2e-05 
    CIT = 0.00155 
    NFACTOR =    1.3 
    XJ = 9.7e-08 
    VSAT = 1.02e+05 
    A0 =    2.3 
    AGS = 0.7794 
    A1 =      0 
    A2 =      1 
    AT =  3e+04 
    KETA = -0.02036 
    NSUB =  6e+16 
    NDEP = 1.5e+17 
    NSD =  1e+20 
    NGATE =  2e+21 
    GAMMA1 =      0 
    GAMMA2 =      0 
    VBX =      0 
    VBM =     -3 
    XT = 1.55e-07 
    K1 = 0.3103 
    KT1 = -0.228 
    KT1L =      0 
    KT2 =  -0.04 
    K2 = -0.01406 
    K3 =    1.5 
    K3B =   5.64 
    LPE0 =      0 
    LPEB =      0 
    DVTP0 = 4.816e-06 
    DVTP1 =      0 
    W0 =      0 
    DVT0 =      0 
    DVT1 =  1.919 
    DVT2 =  0.027 
    DVT0W =      0 
    DVT1W = 5.724e+06 
    DVT2W = -0.016 
    DROUT =   0.56 
    DSUB =   0.56 
    VTH0 = 0.3203 
    EU =   1.67 
    UA = -1.02e-09 
    UA1 = 1.612e-09 
    UB = 1.8e-18 
    UB1 = -1.46e-18 
    UC = 6.667e-11 
    UC1 = 5.2e-11 
    U0 = 0.02605 
    UTE =  -1.03 
    VOFF = -0.1623 
    VOFFL = -1e-09 
    MINV = -0.3522 
    FPROUT =    100 
    PDITS = 0.9162 
    PDITSD = 0.4067 
    PDITSL = 4.357e+06 
    DELTA = 0.01076 
    RDSW =    200 
    RDSWMIN =      0 
    RDWMIN =      0 
    RSWMIN =      0 
    RDW =     24 
    RSW =     24 
    PRWG =      1 
    PRWB =      0 
    PRT =      0 
    ETA0 =  0.001 
    ETAB = -0.2451 
    PCLM = 0.005431 
    PDIBLC1 =      0 
    PDIBLC2 = 0.006266 
    PDIBLCB =      0 
    PSCBE1 = 6.24e+08 
    PSCBE2 =  1e-05 
    PVAG =      0 
    WR =      1 
    DWG =      0 
    DWB =      0 
    XW = 1.7e-08 
    XWREF = 1.7e-08 
    XL = 5.8e-09 
    XLREF = 5.8e-09 
    B0 = 2.16e-08 
    B1 =      0 
    ALPHA0 = 7.286e-08 
    ALPHA1 =  1.272 
    AGIDL =  2e-12 
    BGIDL = 3.6e+08 
    CGIDL =  15.21 
    PHIN = 0.1344 
    EGIDL =      0 
    AIGC = 0.0122 
    BIGC = 0.00176 
    CIGC = 0.04108 
    AIGSD = 0.01043 
    BIGSD = 0.00045 
    CIGSD =      0 
    AIGBACC = 0.02487 
    BIGBACC = 0.00171 
    CIGBACC =  0.075 
    AIGBINV = 0.0111 
    BIGBINV = 0.000949 
    CIGBINV =  0.006 
    NIGC =   2.43 
    NIGBINV =      3 
    NIGBACC =      1 
    NTOX =      1 
    EIGBINV =    1.1 
    PIGCD =  3.616 
    POXEDGE =      1 
    XRCRG1 =     12 
    TNOIA =    1.5 
    TNOIB =    3.5 
    NTNOI =      1 
    XRCRG2 =      1 
    BETA0 =  13.47 
    IJTHDFWD =    0.1 
    IJTHSFWD =    0.1 
    IJTHDREV =    0.1 
    IJTHSREV =    0.1 
    XJBVD =      1 
    XJBVS =      1 
    BVD =    9.3 
    BVS =    9.3 
    VFB =     -1 
    GBMIN =  1e-12 
    RBDB =     50 
    RBPB =     50 
    RBSB =     50 
    RBPS =     50 
    RBPD =     50 
    CGSL = 5.7e-11 
    CGDL = 5.7e-11 
    CKAPPAS =    0.6 
    CKAPPAD =    0.6 
    CF = 7.715e-11 
    CLC =  1e-07 
    CLE =    0.6 
    DWC =      0 
    DLC = 7.92e-09 
    DLCIG = 3.5e-10 
    DWJ =      0 
    VFBCV =     -1 
    ACDE = 0.2778 
    MOIN =    5.4 
    NOFF =  2.088 
    VOFFCV = -0.1165 
    DMCG = 6.3e-08 
    DMCI = 1.98e-07 
    DMDG =      0 
    DMCGT =      0 
    XGW =      0 
    XGL =      0 
    RSHG =    0.1 
    NGCON =      1 
    TCJ = 0.0006309 
    TPB = 0.000957 
    TCJSW = 0.000644 
    TPBSW = 0.000644 
    TCJSWG = 0.000582 
    TPBSWG = 0.000353 
    SK0 =      0 
    SK1 =      0 
    SK2 =      0 
    SL =  2e-06 
    SW =  2e-06 
    K =      0 
    LCIT = 1.709e-10 
    LVSAT = 0.001673 
    LA0 = 7.943e-08 
    LAGS = 4.714e-07 
    LKETA = 3.936e-09 
    LKT1 = -3.26e-09 
    LKT2 =  5e-10 
    LK2 = 2.691e-10 
    LLPE0 = 5.548e-15 
    LDVT0 = 5.368e-07 
    LDVT1 = -6.112e-08 
    LVTH0 = -6.001e-09 
    LUA = -1.2e-18 
    LUB = 1.31e-25 
    LUB1 =  5e-26 
    LUC = 1.191e-17 
    LUC1 = 1.2e-17 
    LU0 = 1.66e-09 
    LUTE = 4.04e-08 
    LVOFF = -1.893e-09 
    LMINV = 6.117e-09 
    LDELTA = 4.581e-09 
    LETA0 = 9.64e-09 
    LETAB = 1.11e-08 
    LPDIBLC2 = -3.06e-10 
    LPDITS = -4.734e-08 
    LPDITSD = 2.827e-08 
    LALPHA1 = -6.1e-08 
    LBETA0 = -3.9e-08 
    LAIGC = -4.1e-11 
    LCIGC = 3.9e-09 
    LPIGCD = 3.3e-07 
    LNOFF = 4.2e-08 
    LVOFFCV = -2.6e-09 
    WCIT = 7.4e-11 
    WAT = -0.0016 
    WA0 = -5.624e-07 
    WAGS = 4.352e-08 
    WKETA = -9.53e-09 
    WKT1 = -8.1e-09 
    WK2 = 7.644e-09 
    WK3 = 5.7e-07 
    WDVTP0 = 4.6e-12 
    WDVT1 = -2.337e-08 
    WVTH0 = -2.768e-08 
    WUA = 6.315e-17 
    WUB = -5e-27 
    WUC = 7.627e-18 
    WU0 = 5.05e-10 
    WUTE = -1.4e-08 
    WETA0 = 2.1e-08 
    WBETA0 = -3.536e-08 
    WAIGC = 3.18e-11 
    PCIT = -9.402e-18 
    PVSAT = -1.32e-10 
    PA0 = 6.304e-14 
    PAGS = -7.124e-14 
    PKETA = 1.19e-15 
    PKT1 = -3e-17 
    PK2 = 1.809e-16 
    PK3 = 5.259e-15 
    PPE0 = 7.17e-22 
    PVTH0 = -1.123e-15 
    PUA = -1.7e-24 
    PUB = 7.1e-34 
    PU0 = -8.892e-17 
    PUTE = 1.224e-15 
    PVOFF = 1.498e-16 
    PETA0 = -5.999e-16 
    PETAB = -3e-18 
    TNOM =  298.1 
    CGSO = 8.53e-11 
    CGDO = 8.53e-11 
    CGBO =      0 
    XPART =      1 
    RSH =     12 
    JSS = 2.193e-08 
    JSWS = 1.668e-14 
    JSWGS = 5.96e-13 
    PBS = 0.5355 
    MJS = 0.2719 
    PBSWS =  0.932 
    MJSWS = 0.2023 
    CJS = 0.001498 
    CJSWS = 5.011e-11 
    NJS = 0.9164 
    PBSWGS =   0.42 
    MJSWGS =    0.9 
    CJSWGS = 2.5e-10 
    XTIS =   3.38 
    JSD = 2.193e-08 
    JSWD = 1.668e-14 
    JSWGD = 5.96e-13 
    PBD = 0.5355 
    MJD = 0.2719 
    PBSWD =  0.932 
    MJSWD = 0.2023 
    CJD = 0.001498 
    CJSWD = 5.011e-11 
    NJD = 0.9164 
    PBSWGD =   0.42 
    MJSWGD =    0.9 
    CJSWGD = 2.5e-10 
    XTID =   3.38 
    LMLT =      1 
    WMLT =      1 
    LINT = 1.975e-09 
    LL = -2.412e-16 
    LLC =      0 
    LLN =   1.02 
    LW = -9.6e-16 
    LWC =      0 
    LWN =   1.02 
    LWL = 1.707e-23 
    LWLC =      0 
    LMIN = 3.6e-08 
    LMAX = 0.0001 
    WINT = -2.38e-08 
    WL = -9.271e-16 
    WLC =      0 
    WLN =   0.86 
    WW = 2.7e-16 
    WWC =      0 
    WWN =      1 
    WWL = 2.196e-22 
    WWLC =      0 
    WMIN = 1.08e-07 
    WMAX = 0.0001 
    NOIA = 8.7e+41 
    NOIB = 1.293e+25 
    NOIC = 1.1e+08 
    EM = 2.1e+07 
    EF =   0.98 
    AF =      1 
    KF =      0 
    TRS =      0 
    TRD =      0 
    TEMPMOD  =      0 
    LAMBDA   =      0 
    VTL      =  2e+05 m/s
    LC       =  5e-09 
    XN       =      3 
    LLAMBDA  =      0 
    LVTL     =      0 
    LXN      =      0 
    WLAMBDA  =      0 
    WVTL     =      0 
    WXN      =      0 
    PLAMBDA  =      0 
    PVTL     =      0 
    PXN      =      0 
    RNOIA    =  0.577 
    RNOIB    = 0.5164 
    SAREF(SA0) = 2.61e-07 m
    SBREF(SB0) = 2.61e-07 m
    WLOD     =      0 m
    KU0      = -1e-08 1/m
    KVSAT    =      1 
    KVTH0    = 1.2e-09 m
    TKU0     =      0 
    LLODKU0  =      1 
    WLODKU0  =      1 
    LLODVTH  =      1 
    WLODVTH  =      1 
    LKU0     =  1e-06 
    WKU0     =  2e-06 
    PKU0     =      0 
    LKVTH0   =  3e-08 
    WKVTH0   =  9e-08 
    PKVTH0   =      0 
    STK2     =      0 
    LODK2    =      1 
    STETA0   = -1.1e-09 
    LODETA0  =      1 
    LXRCRG1  =      0 
    WXRCRG1  =      0 
    PXRCRG1  =      0 
    LXRCRG2  =      0 
    WXRCRG2  =      0 
    PXRCRG2  =      0 
     *** UCB's BSIM4.4.0 new diode model is activated. ***
    *** UCB's Diode Model Parameters ***
    JTSS         =      0 
    JTSSWS       =      0 
    JTSSWGS      =  1e-07 
    JTSD         =      0 
    JTSSWD       =      0 
    JTSSWGD      =  1e-07 
    NJTS         =     20 
    NJTSSW       =     20 
    NJTSSWG      =     20 
    XTSS         =   0.02 
    XTSSWS       =   0.02 
    XTSSWGS      =   0.02 
    XTSD         =   0.02 
    XTSSWD       =   0.02 
    XTSSWGD      =   0.02 
    TNJTS        =      0 
    TNJTSSW      =      0 
    TNJTSSWG     =      0 
    VFBSDOFF     =      0 
    LVFBSDOFF    =      0 
    WVFBSDOFF    =      0 
    PVFBSDOFF    =      0 
    LINTNOI      =      0 
    VTSS         =     10 
    VTSD         =     10 
    VTSSWS       =     10 
    VTSSWD       =     10 
    VTSSWGS      =     10 
    VTSSWGD      =     10 
    TTDIOMOD     =      1 
     *** UCB's BSIM4.5.0 new model is activated. ***
    UD         =  1e+14 
    UD1        =      0 
    UP         =      0 
    LP         =  1e-08 
    TVOFF      =  0.003 
    TVFBSDOFF  =      0 
    RBPS0      =     50 
    RBPSL      =      0 
    RBPSW      =      0 
    RBPSNF     =      0 
    RBPD0      =     50 
    RBPDL      =      0 
    RBPDW      =      0 
    RBPDNF     =      0 
    RBPBX0     =    100 
    RBPBXL     =      0 
    RBPBXW     =      0 
    RBPBXNF    =      0 
    RBPBY0     =    100 
    RBPBYL     =      0 
    RBPBYW     =      0 
    RBPBYNF    =      0 
    RBSBX0     =    100 
    RBSBY0     =    100 
    RBDBX0     =    100 
    RBDBY0     =    100 
    RBSDBXL    =      0 
    RBSDBXW    =      0 
    RBSDBXNF   =      0 
    RBSDBYL    =      0 
    RBSDBYW    =      0 
    RBSDBYNF   =      0 
    LUD        =      0 
    LUD1       =      0 
    LUP        =      0 
    LLP        =      0 
    LTVOFF     = -4e-12 
    LTVFBSDOFF =      0 
    WUD        =      0 
    WUD1       =      0 
    WUP        =      0 
    WLP        =      0 
    WTVOFF     =      0 
    WTVFBSDOFF =      0 
    PUD        =      0 
    PUD1       =      0 
    PUP        =      0 
    PLP        =      0 
    PTVOFF     =      0 
    PTVFBSDOFF =      0 
    WEB        =      1 
    WEC        =      1 
    KVTH0WE    = 0.0012 
    K2WE       =      0 
    KU0WE      = -0.0003 
    SCREF      =  1e-06 
    WPEMOD     =      1 
    LKVTH0WE   =      0 
    LK2WE      =      0 
    LKU0WE     =      0 
    WKVTH0WE   = -1.2e-10 
    WK2WE      =      0 
    WKU0WE     =      0 
    PKVTH0WE   =      0 
    PK2WE      =      0 
    PKU0WE     =      0 
 Model Name: plvt11ll_ckt_21  
 BSIM4 Model (Level 54)
    MOBMOD = 0
    BINUNIT = 2
    PARAMCHK = 1
    CAPMOD = 2
    DIOMOD = 2
    RDSMOD = 1
    TRNQSMOD = 0
    ACNQSMOD = 0
    RBODYMOD = 0
    RGATEMOD = 0
    PERMOD = 1
    GEOMOD = 0
    RGEOMOD = 1
    FNOIMOD = 1
    TNOIMOD = 0
    IGCMOD = 2
    IGBMOD = 1
    STIMOD = 1
    VBFWDMOD = 0
    VERSION =    4.5 
    TOXREF = 2.7e-09 
    TOXE = 2.7e-09 
    TOXP = 2.49e-09 
    TOXM = 2.7e-09 
    DTOX = 2.1e-10 
    EPSROX =    3.9 
    CDSC =      0 
    CDSCB =      0 
    CDSCD = 0.0005 
    CIT = 0.0001 
    NFACTOR =      1 
    XJ = 8.6e-08 
    VSAT = 1.2e+05 
    A0 =    0.9 
    AGS =    0.5 
    A1 =      0 
    A2 =      1 
    AT =  1e+04 
    KETA = -0.002 
    NSUB =  6e+16 
    NDEP =  1e+17 
    NSD =  1e+20 
    NGATE =  3e+21 
    GAMMA1 =      0 
    GAMMA2 =      0 
    VBX =      0 
    VBM =     -3 
    XT = 1.55e-07 
    K1 =    0.3 
    KT1 =  -0.12 
    KT1L = -4.6e-09 
    KT2 = -0.025 
    K2 =  -0.03 
    K3 =      1 
    K3B = 0.9348 
    LPE0 =      0 
    LPEB = 1.5e-08 
    DVTP0 =  4e-07 
    DVTP1 =      0 
    W0 =  1e-05 
    DVT0 =    0.1 
    DVT1 =    0.3 
    DVT2 =   0.19 
    DVT0W =  0.102 
    DVT1W = 5.3e+06 
    DVT2W = -0.032 
    DROUT =   0.56 
    DSUB =   0.56 
    VTH0 = -0.3999 
    EU =   1.67 
    UA = -7.4e-10 
    UA1 =  1e-09 
    UB = 1.65e-18 
    UB1 = -1e-18 
    UC = 2.5e-11 
    UC1 =  5e-11 
    U0 = 0.008794 
    UTE =   -0.8 
    VOFF = -0.1509 
    VOFFL =      0 
    MINV =  -0.35 
    FPROUT =    100 
    PDITS =   0.82 
    PDITSD =    0.7 
    PDITSL =  3e+06 
    DELTA =   0.01 
    RDSW =    200 
    RDSWMIN =      0 
    RDWMIN =      0 
    RSWMIN =      0 
    RDW =     95 
    RSW =     95 
    PRWG =      0 
    PRWB =      0 
    PRT =      0 
    ETA0 =  0.088 
    ETAB =  -0.01 
    PCLM =    0.1 
    PDIBLC1 =   0.05 
    PDIBLC2 =  0.001 
    PDIBLCB =      0 
    PSCBE1 = 4.24e+08 
    PSCBE2 =  1e-05 
    PVAG =      1 
    WR =      1 
    DWG =      0 
    DWB =      0 
    XW = 1.8e-08 
    XWREF = 1.8e-08 
    XL = 5.1e-09 
    XLREF = 5.1e-09 
    B0 =      0 
    B1 =      0 
    ALPHA0 =      0 
    ALPHA1 = 0.0028 
    AGIDL =      0 
    BGIDL = 2.3e+09 
    CGIDL =    0.5 
    PHIN =  0.065 
    EGIDL =    0.8 
    AIGC =  0.007 
    BIGC = 0.0006 
    CIGC =   0.03 
    AIGSD = 0.0059 
    BIGSD =      0 
    CIGSD =   0.03 
    AIGBACC =  0.014 
    BIGBACC = 0.00171 
    CIGBACC =  0.075 
    AIGBINV = 0.0111 
    BIGBINV = 0.000949 
    CIGBINV =  0.006 
    NIGC =      1 
    NIGBINV =      3 
    NIGBACC =      1 
    NTOX =      1 
    EIGBINV =    1.1 
    PIGCD =    2.8 
    POXEDGE =      1 
    XRCRG1 =     12 
    TNOIA =    1.5 
    TNOIB =    3.5 
    NTNOI =      1 
    XRCRG2 =      1 
    BETA0 =    7.4 
    IJTHDFWD =    0.1 
    IJTHSFWD =    0.1 
    IJTHDREV =    0.1 
    IJTHSREV =    0.1 
    XJBVD =      1 
    XJBVS =      1 
    BVD =   8.55 
    BVS =   8.55 
    VFB =     -1 
    GBMIN =  1e-12 
    RBDB =     50 
    RBPB =     50 
    RBSB =     50 
    RBPS =     50 
    RBPD =     50 
    CGSL = 6.5e-11 
    CGDL = 6.5e-11 
    CKAPPAS =    0.6 
    CKAPPAD =    0.6 
    CF = 7.44e-11 
    CLC =  1e-07 
    CLE =    0.6 
    DWC =      0 
    DLC = 8.1e-09 
    DLCIG =  4e-09 
    DWJ =      0 
    VFBCV =     -1 
    ACDE =    0.5 
    MOIN =    8.5 
    NOFF =    1.7 
    VOFFCV = -0.065 
    DMCG = 6.3e-08 
    DMCI = 1.98e-07 
    DMDG =      0 
    DMCGT =      0 
    XGW =      0 
    XGL =      0 
    RSHG =    0.1 
    NGCON =      1 
    TCJ = 0.0006843 
    TPB = 0.001006 
    TCJSW = 0.000349 
    TPBSW = 0.001967 
    TCJSWG = 0.0022 
    TPBSWG =  1e-05 
    SK0 =      0 
    SK1 =      0 
    SK2 =      0 
    SL =  2e-06 
    SW =  2e-06 
    K =      0 
    LCIT =  2e-10 
    LVSAT = -0.00172 
    LAT = -0.0006 
    LKETA =  2e-09 
    LK2 = -3.5e-09 
    LLPE0 = 2.53e-15 
    LDVT0 = 3.94e-09 
    LVTH0 = 3.26e-09 
    LUA = -3.2e-18 
    LUB = -1.1e-26 
    LUB1 =  5e-26 
    LUC = -1e-18 
    LU0 = -1.08e-10 
    LUTE =  3e-08 
    LVOFF = -2e-09 
    LMINV = 2.5e-08 
    LETA0 = -2.41e-10 
    LALPHA0 = 4.4e-17 
    LNOFF =  3e-08 
    WAGS =  4e-08 
    WKT1 = 1.1e-08 
    WVTH0 = 4.5e-09 
    WUA = -3.6e-17 
    WUB1 =  7e-26 
    WUTE =  3e-08 
    PCDSCD = -2e-18 
    PCIT = -6e-18 
    PVSAT =  1e-11 
    PAT =  1e-10 
    PKT1 = -7.1e-16 
    PKT2 =  3e-17 
    PVTH0 = -3.4e-16 
    PETA0 = -1.8e-16 
    TNOM =  298.1 
    CGSO =  6e-11 
    CGDO =  6e-11 
    CGBO =      0 
    XPART =      1 
    RSH =     12 
    JSS = 1.418e-08 
    JSWS = 1.2e-13 
    JSWGS = 1.53e-12 
    PBS =  0.731 
    MJS =  0.356 
    PBSWS =  0.982 
    MJSWS =  0.231 
    CJS = 0.001404 
    CJSWS = 5.484e-11 
    NJS =  0.998 
    PBSWGS =  0.204 
    MJSWGS = 0.9085 
    CJSWGS = 1.671e-10 
    XTIS =  6.685 
    JSD = 1.418e-08 
    JSWD = 1.2e-13 
    JSWGD = 1.53e-12 
    PBD =  0.731 
    MJD =  0.356 
    PBSWD =  0.982 
    MJSWD =  0.231 
    CJD = 0.001404 
    CJSWD = 5.484e-11 
    NJD =  0.998 
    PBSWGD =  0.204 
    MJSWGD = 0.9085 
    CJSWGD = 1.671e-10 
    XTID =  6.685 
    LMLT =      1 
    WMLT =      1 
    LINT = -2e-09 
    LL =  1e-17 
    LLC =      0 
    LLN =      1 
    LW =      0 
    LWC =      0 
    LWN =      1 
    LWL =      0 
    LWLC =      0 
    LMIN = 3.6e-08 
    LMAX = 0.0001 
    WINT = -6e-09 
    WL = -2e-16 
    WLC =      0 
    WLN =      1 
    WW = 2.5e-16 
    WWC =      0 
    WWN =   1.05 
    WWL = 1.8e-23 
    WWLC =      0 
    WMIN = 1.08e-07 
    WMAX = 0.0001 
    NOIA = 1.74e+42 
    NOIB = -1.55e+26 
    NOIC = 1.24e+10 
    EM = 1.14e+08 
    EF =    1.1 
    AF =      1 
    KF =      0 
    TRS =      0 
    TRD =      0 
    TEMPMOD  =      0 
    LAMBDA   =      0 
    VTL      =  2e+05 m/s
    LC       =  5e-09 
    XN       =      3 
    LLAMBDA  =      0 
    LVTL     =      0 
    LXN      =      0 
    WLAMBDA  =      0 
    WVTL     =      0 
    WXN      =      0 
    PLAMBDA  =      0 
    PVTL     =      0 
    PXN      =      0 
    RNOIA    =  0.577 
    RNOIB    = 0.5164 
    SAREF(SA0) = 2.61e-07 m
    SBREF(SB0) = 2.61e-07 m
    WLOD     =      0 m
    KU0      =  5e-10 1/m
    KVSAT    =      1 
    KVTH0    = -1.5e-09 m
    TKU0     =      0 
    LLODKU0  =      1 
    WLODKU0  =      1 
    LLODVTH  =      1 
    WLODVTH  =      1 
    LKU0     =      0 
    WKU0     =      0 
    PKU0     = -1e-15 
    LKVTH0   = -1.8e-08 
    WKVTH0   =      0 
    PKVTH0   =  1e-15 
    STK2     =      0 
    LODK2    =      1 
    STETA0   = -5e-10 
    LODETA0  =      1 
    LXRCRG1  =      0 
    WXRCRG1  =      0 
    PXRCRG1  =      0 
    LXRCRG2  =      0 
    WXRCRG2  =      0 
    PXRCRG2  =      0 
     *** UCB's BSIM4.4.0 new diode model is activated. ***
    *** UCB's Diode Model Parameters ***
    JTSS         =      0 
    JTSSWS       =      0 
    JTSSWGS      =  1e-09 
    JTSD         =      0 
    JTSSWD       =      0 
    JTSSWGD      =  1e-09 
    NJTS         =     20 
    NJTSSW       =     20 
    NJTSSWG      =     20 
    XTSS         =   0.02 
    XTSSWS       =   0.02 
    XTSSWGS      =    0.4 
    XTSD         =   0.02 
    XTSSWD       =   0.02 
    XTSSWGD      =    0.4 
    TNJTS        =      0 
    TNJTSSW      =      0 
    TNJTSSWG     =      0 
    VFBSDOFF     =      0 
    LVFBSDOFF    =      0 
    WVFBSDOFF    =      0 
    PVFBSDOFF    =      0 
    LINTNOI      = -7.17e-09 
    VTSS         =     10 
    VTSD         =     10 
    VTSSWS       =     10 
    VTSSWD       =     10 
    VTSSWGS      =     10 
    VTSSWGD      =     10 
    TTDIOMOD     =      1 
     *** UCB's BSIM4.5.0 new model is activated. ***
    UD         =      0 
    UD1        =      0 
    UP         =   0.08 
    LP         =  1e-06 
    TVOFF      =  0.004 
    TVFBSDOFF  =      0 
    RBPS0      =     50 
    RBPSL      =      0 
    RBPSW      =      0 
    RBPSNF     =      0 
    RBPD0      =     50 
    RBPDL      =      0 
    RBPDW      =      0 
    RBPDNF     =      0 
    RBPBX0     =    100 
    RBPBXL     =      0 
    RBPBXW     =      0 
    RBPBXNF    =      0 
    RBPBY0     =    100 
    RBPBYL     =      0 
    RBPBYW     =      0 
    RBPBYNF    =      0 
    RBSBX0     =    100 
    RBSBY0     =    100 
    RBDBX0     =    100 
    RBDBY0     =    100 
    RBSDBXL    =      0 
    RBSDBXW    =      0 
    RBSDBXNF   =      0 
    RBSDBYL    =      0 
    RBSDBYW    =      0 
    RBSDBYNF   =      0 
    LUD        =      0 
    LUD1       =      0 
    LUP        =      0 
    LLP        =      0 
    LTVOFF     =      0 
    LTVFBSDOFF =      0 
    WUD        =      0 
    WUD1       =      0 
    WUP        =      0 
    WLP        =      0 
    WTVOFF     =  2e-10 
    WTVFBSDOFF =      0 
    PUD        =      0 
    PUD1       =      0 
    PUP        =      0 
    PLP        =      0 
    PTVOFF     = -2.6e-17 
    PTVFBSDOFF =      0 
    WEB        =      1 
    WEC        =      1 
    KVTH0WE    = -0.0008 
    K2WE       =      0 
    KU0WE      = -0.0015 
    SCREF      =  1e-06 
    WPEMOD     =      1 
    LKVTH0WE   =      0 
    LK2WE      =      0 
    LKU0WE     =      0 
    WKVTH0WE   = 7.5e-11 
    WK2WE      =      0 
    WKU0WE     =  8e-11 
    PKVTH0WE   =      0 
    PK2WE      =      0 
    PKU0WE     =      0 
 Model Name: nlvt11ll_ckt_21  
 BSIM4 Model (Level 54)
    MOBMOD = 0
    BINUNIT = 2
    PARAMCHK = 1
    CAPMOD = 2
    DIOMOD = 2
    RDSMOD = 1
    TRNQSMOD = 0
    ACNQSMOD = 0
    RBODYMOD = 0
    RGATEMOD = 0
    PERMOD = 1
    GEOMOD = 0
    RGEOMOD = 1
    FNOIMOD = 1
    TNOIMOD = 0
    IGCMOD = 2
    IGBMOD = 1
    STIMOD = 1
    VBFWDMOD = 0
    VERSION =    4.5 
    TOXREF = 2.37e-09 
    TOXE = 2.37e-09 
    TOXP = 2.262e-09 
    TOXM = 2.37e-09 
    DTOX = 1.08e-10 
    EPSROX =    3.9 
    CDSC = 0.006659 
    CDSCB =  5e-05 
    CDSCD =  2e-05 
    CIT = 0.00155 
    NFACTOR =    1.3 
    XJ = 9.7e-08 
    VSAT = 1.02e+05 
    A0 =    2.3 
    AGS = 0.7794 
    A1 =      0 
    A2 =      1 
    AT =  3e+04 
    KETA = -0.02036 
    NSUB =  6e+16 
    NDEP = 1.5e+17 
    NSD =  1e+20 
    NGATE =  2e+21 
    GAMMA1 =      0 
    GAMMA2 =      0 
    VBX =      0 
    VBM =     -3 
    XT = 1.55e-07 
    K1 = 0.3103 
    KT1 = -0.228 
    KT1L =      0 
    KT2 =  -0.04 
    K2 = -0.01406 
    K3 =    1.5 
    K3B =   5.64 
    LPE0 =      0 
    LPEB =      0 
    DVTP0 = 4.816e-06 
    DVTP1 =      0 
    W0 =      0 
    DVT0 =      0 
    DVT1 =  1.919 
    DVT2 =  0.027 
    DVT0W =      0 
    DVT1W = 5.724e+06 
    DVT2W = -0.016 
    DROUT =   0.56 
    DSUB =   0.56 
    VTH0 = 0.3364 
    EU =   1.67 
    UA = -1.02e-09 
    UA1 = 1.612e-09 
    UB = 1.8e-18 
    UB1 = -1.46e-18 
    UC = 6.667e-11 
    UC1 = 5.2e-11 
    U0 = 0.02605 
    UTE =  -1.03 
    VOFF = -0.1698 
    VOFFL = -1e-09 
    MINV = -0.3522 
    FPROUT =    100 
    PDITS = 0.9162 
    PDITSD = 0.4067 
    PDITSL = 4.357e+06 
    DELTA = 0.01076 
    RDSW =    200 
    RDSWMIN =      0 
    RDWMIN =      0 
    RSWMIN =      0 
    RDW =     24 
    RSW =     24 
    PRWG =      1 
    PRWB =      0 
    PRT =      0 
    ETA0 =  0.001 
    ETAB = -0.2451 
    PCLM = 0.005431 
    PDIBLC1 =      0 
    PDIBLC2 = 0.006266 
    PDIBLCB =      0 
    PSCBE1 = 6.24e+08 
    PSCBE2 =  1e-05 
    PVAG =      0 
    WR =      1 
    DWG =      0 
    DWB =      0 
    XW = 1.7e-08 
    XWREF = 1.7e-08 
    XL = 5.8e-09 
    XLREF = 5.8e-09 
    B0 = 2.16e-08 
    B1 =      0 
    ALPHA0 = 7.286e-08 
    ALPHA1 =  1.272 
    AGIDL =  2e-12 
    BGIDL = 3.6e+08 
    CGIDL =  15.21 
    PHIN = 0.1344 
    EGIDL =      0 
    AIGC = 0.0122 
    BIGC = 0.00176 
    CIGC = 0.04108 
    AIGSD = 0.01043 
    BIGSD = 0.00045 
    CIGSD =      0 
    AIGBACC = 0.02487 
    BIGBACC = 0.00171 
    CIGBACC =  0.075 
    AIGBINV = 0.0111 
    BIGBINV = 0.000949 
    CIGBINV =  0.006 
    NIGC =   2.43 
    NIGBINV =      3 
    NIGBACC =      1 
    NTOX =      1 
    EIGBINV =    1.1 
    PIGCD =  3.616 
    POXEDGE =      1 
    XRCRG1 =     12 
    TNOIA =    1.5 
    TNOIB =    3.5 
    NTNOI =      1 
    XRCRG2 =      1 
    BETA0 =  13.47 
    IJTHDFWD =    0.1 
    IJTHSFWD =    0.1 
    IJTHDREV =    0.1 
    IJTHSREV =    0.1 
    XJBVD =      1 
    XJBVS =      1 
    BVD =    9.3 
    BVS =    9.3 
    VFB =     -1 
    GBMIN =  1e-12 
    RBDB =     50 
    RBPB =     50 
    RBSB =     50 
    RBPS =     50 
    RBPD =     50 
    CGSL = 5.7e-11 
    CGDL = 5.7e-11 
    CKAPPAS =    0.6 
    CKAPPAD =    0.6 
    CF = 7.715e-11 
    CLC =  1e-07 
    CLE =    0.6 
    DWC =      0 
    DLC = 7.92e-09 
    DLCIG = 3.5e-10 
    DWJ =      0 
    VFBCV =     -1 
    ACDE = 0.2778 
    MOIN =    5.4 
    NOFF =  2.088 
    VOFFCV = -0.1165 
    DMCG = 6.3e-08 
    DMCI = 1.98e-07 
    DMDG =      0 
    DMCGT =      0 
    XGW =      0 
    XGL =      0 
    RSHG =    0.1 
    NGCON =      1 
    TCJ = 0.0006309 
    TPB = 0.000957 
    TCJSW = 0.000644 
    TPBSW = 0.000644 
    TCJSWG = 0.000582 
    TPBSWG = 0.000353 
    SK0 =      0 
    SK1 =      0 
    SK2 =      0 
    SL =  2e-06 
    SW =  2e-06 
    K =      0 
    LCIT = 1.709e-10 
    LVSAT = 0.001673 
    LA0 = 7.943e-08 
    LAGS = 4.714e-07 
    LKETA = 3.936e-09 
    LKT1 = -3.26e-09 
    LKT2 =  5e-10 
[...]
 td= 1.3248e-10  targ= 1.8248e-10   trig= 5.0000e-11

          ***** job concluded

   *** data name = data , index =    15 ***

 ******  
 **

  ******  transient analysis tnom=  25.000 temp=  25.000 *****
 td= 1.3014e-10  targ= 1.8014e-10   trig= 5.0000e-11

          ***** job concluded

   *** data name = data , index =    16 ***

 ******  
 **

  ******  transient analysis tnom=  25.000 temp=  25.000 *****
 td= 1.3315e-10  targ= 1.8315e-10   trig= 5.0000e-11

          ***** job concluded

   *** data name = data , index =    17 ***

 ******  
 **

  ******  transient analysis tnom=  25.000 temp=  25.000 *****
 td= 1.3037e-10  targ= 1.8037e-10   trig= 5.0000e-11

          ***** job concluded

   *** data name = data , index =    18 ***

 ******  
 **

  ******  transient analysis tnom=  25.000 temp=  25.000 *****
 td= 1.3440e-10  targ= 1.8440e-10   trig= 5.0000e-11

          ***** job concluded

   *** data name = data , index =    19 ***

 ******  
 **

  ******  transient analysis tnom=  25.000 temp=  25.000 *****
 td= 1.3323e-10  targ= 1.8323e-10   trig= 5.0000e-11

          ***** job concluded

   *** data name = data , index =    20 ***

 ******  
 **

  ******  transient analysis tnom=  25.000 temp=  25.000 *****
 td= 1.3300e-10  targ= 1.8300e-10   trig= 5.0000e-11

          ***** job concluded

   *** data name = data , index =    21 ***

 ******  
 **

  ******  transient analysis tnom=  25.000 temp=  25.000 *****
 td= 1.3172e-10  targ= 1.8172e-10   trig= 5.0000e-11

          ***** job concluded

   *** data name = data , index =    22 ***

 ******  
 **

  ******  transient analysis tnom=  25.000 temp=  25.000 *****
 td= 1.3056e-10  targ= 1.8056e-10   trig= 5.0000e-11

          ***** job concluded

   *** data name = data , index =    23 ***

 ******  
 **

  ******  transient analysis tnom=  25.000 temp=  25.000 *****
 td= 1.3442e-10  targ= 1.8442e-10   trig= 5.0000e-11

          ***** job concluded

   *** data name = data , index =    24 ***

 ******  
 **

  ******  transient analysis tnom=  25.000 temp=  25.000 *****
 td= 1.3198e-10  targ= 1.8198e-10   trig= 5.0000e-11

          ***** job concluded

   *** data name = data , index =    25 ***

 ******  
 **

  ******  transient analysis tnom=  25.000 temp=  25.000 *****
 td= 1.3478e-10  targ= 1.8478e-10   trig= 5.0000e-11

          ***** job concluded

   *** data name = data , index =    26 ***

 ******  
 **

  ******  transient analysis tnom=  25.000 temp=  25.000 *****
 td= 1.3476e-10  targ= 1.8476e-10   trig= 5.0000e-11

          ***** job concluded

   *** data name = data , index =    27 ***

 ******  
 **

  ******  transient analysis tnom=  25.000 temp=  25.000 *****
 td= 1.3193e-10  targ= 1.8193e-10   trig= 5.0000e-11

          ***** job concluded

   *** data name = data , index =    28 ***

 ******  
 **

  ******  transient analysis tnom=  25.000 temp=  25.000 *****
 td= 1.3351e-10  targ= 1.8351e-10   trig= 5.0000e-11

          ***** job concluded

   *** data name = data , index =    29 ***

 ******  
 **

  ******  transient analysis tnom=  25.000 temp=  25.000 *****
 td= 1.3184e-10  targ= 1.8184e-10   trig= 5.0000e-11

          ***** job concluded

   *** data name = data , index =    30 ***

 ******  
 **

  ******  transient analysis tnom=  25.000 temp=  25.000 *****
 td= 1.3262e-10  targ= 1.8262e-10   trig= 5.0000e-11

          ***** job concluded

   *** data name = data , index =    31 ***

 ******  
 **

  ******  transient analysis tnom=  25.000 temp=  25.000 *****
 td= 1.3588e-10  targ= 1.8588e-10   trig= 5.0000e-11

          ***** job concluded

   *** data name = data , index =    32 ***

 ******  
 **

  ******  transient analysis tnom=  25.000 temp=  25.000 *****
 td= 1.3238e-10  targ= 1.8238e-10   trig= 5.0000e-11

          ***** job concluded

   *** data name = data , index =    33 ***

 ******  
 **

  ******  transient analysis tnom=  25.000 temp=  25.000 *****
 td= 1.3482e-10  targ= 1.8482e-10   trig= 5.0000e-11

          ***** job concluded

   *** data name = data , index =    34 ***

 ******  
 **

  ******  transient analysis tnom=  25.000 temp=  25.000 *****
 td= 1.3328e-10  targ= 1.8328e-10   trig= 5.0000e-11

          ***** job concluded

   *** data name = data , index =    35 ***

 ******  
 **

  ******  transient analysis tnom=  25.000 temp=  25.000 *****
 td= 1.3304e-10  targ= 1.8304e-10   trig= 5.0000e-11

          ***** job concluded

   *** data name = data , index =    36 ***

 ******  
 **

  ******  transient analysis tnom=  25.000 temp=  25.000 *****
 td= 1.3320e-10  targ= 1.8320e-10   trig= 5.0000e-11

          ***** job concluded

   *** data name = data , index =    37 ***

 ******  
 **

  ******  transient analysis tnom=  25.000 temp=  25.000 *****
 td= 1.3462e-10  targ= 1.8462e-10   trig= 5.0000e-11

          ***** job concluded

   *** data name = data , index =    38 ***

 ******  
 **

  ******  transient analysis tnom=  25.000 temp=  25.000 *****
 td= 1.3014e-10  targ= 1.8014e-10   trig= 5.0000e-11

          ***** job concluded

   *** data name = data , index =    39 ***

 ******  
 **

  ******  transient analysis tnom=  25.000 temp=  25.000 *****
 td= 1.2859e-10  targ= 1.7859e-10   trig= 5.0000e-11

          ***** job concluded

   *** data name = data , index =    40 ***

 ******  
 **

  ******  transient analysis tnom=  25.000 temp=  25.000 *****
 td= 1.2623e-10  targ= 1.7623e-10   trig= 5.0000e-11

          ***** job concluded

   *** data name = data , index =    41 ***

 ******  
 **

  ******  transient analysis tnom=  25.000 temp=  25.000 *****
 td= 1.3328e-10  targ= 1.8328e-10   trig= 5.0000e-11

          ***** job concluded

   *** data name = data , index =    42 ***

 ******  
 **

  ******  transient analysis tnom=  25.000 temp=  25.000 *****
 td= 1.3367e-10  targ= 1.8367e-10   trig= 5.0000e-11

          ***** job concluded

   *** data name = data , index =    43 ***

 ******  
 **

  ******  transient analysis tnom=  25.000 temp=  25.000 *****
 td= 1.3257e-10  targ= 1.8257e-10   trig= 5.0000e-11

          ***** job concluded

   *** data name = data , index =    44 ***

 ******  
 **

  ******  transient analysis tnom=  25.000 temp=  25.000 *****
 td= 1.3111e-10  targ= 1.8111e-10   trig= 5.0000e-11

          ***** job concluded

   *** data name = data , index =    45 ***

 ******  
 **

  ******  transient analysis tnom=  25.000 temp=  25.000 *****
 td= 1.3192e-10  targ= 1.8192e-10   trig= 5.0000e-11

          ***** job concluded

   *** data name = data , index =    46 ***

 ******  
 **

  ******  transient analysis tnom=  25.000 temp=  25.000 *****
 td= 1.3069e-10  targ= 1.8069e-10   trig= 5.0000e-11

          ***** job concluded

   *** data name = data , index =    47 ***

 ******  
 **

  ******  transient analysis tnom=  25.000 temp=  25.000 *****
 td= 1.3278e-10  targ= 1.8278e-10   trig= 5.0000e-11

          ***** job concluded

   *** data name = data , index =    48 ***

 ******  
 **

  ******  transient analysis tnom=  25.000 temp=  25.000 *****
 td= 1.3327e-10  targ= 1.8327e-10   trig= 5.0000e-11

          ***** job concluded

   *** data name = data , index =    49 ***

 ******  
 **

  ******  transient analysis tnom=  25.000 temp=  25.000 *****
 td= 1.3223e-10  targ= 1.8223e-10   trig= 5.0000e-11

          ***** job concluded

   *** data name = data , index =    50 ***

 ******  
 **

  ******  transient analysis tnom=  25.000 temp=  25.000 *****
 td= 1.2510e-10  targ= 1.7510e-10   trig= 5.0000e-11

          ***** job concluded

   *** data name = data , index =    51 ***

 ******  
 **

  ******  transient analysis tnom=  25.000 temp=  25.000 *****
 td= 1.3273e-10  targ= 1.8273e-10   trig= 5.0000e-11

          ***** job concluded

   *** data name = data , index =    52 ***

 ******  
 **

  ******  transient analysis tnom=  25.000 temp=  25.000 *****
 td= 1.3152e-10  targ= 1.8152e-10   trig= 5.0000e-11

          ***** job concluded

   *** data name = data , index =    53 ***

 ******  
 **

  ******  transient analysis tnom=  25.000 temp=  25.000 *****
 td= 1.3470e-10  targ= 1.8470e-10   trig= 5.0000e-11

          ***** job concluded

   *** data name = data , index =    54 ***

 ******  
 **

  ******  transient analysis tnom=  25.000 temp=  25.000 *****
 td= 1.3178e-10  targ= 1.8178e-10   trig= 5.0000e-11

          ***** job concluded

   *** data name = data , index =    55 ***

 ******  
 **

  ******  transient analysis tnom=  25.000 temp=  25.000 *****
 td= 1.3022e-10  targ= 1.8022e-10   trig= 5.0000e-11

          ***** job concluded

   *** data name = data , index =    56 ***

 ******  
 **

  ******  transient analysis tnom=  25.000 temp=  25.000 *****
 td= 1.3099e-10  targ= 1.8099e-10   trig= 5.0000e-11

          ***** job concluded

   *** data name = data , index =    57 ***

 ******  
 **

  ******  transient analysis tnom=  25.000 temp=  25.000 *****
 td= 1.3111e-10  targ= 1.8111e-10   trig= 5.0000e-11

          ***** job concluded

   *** data name = data , index =    58 ***

 ******  
 **

  ******  transient analysis tnom=  25.000 temp=  25.000 *****
 td= 1.3220e-10  targ= 1.8220e-10   trig= 5.0000e-11

          ***** job concluded

   *** data name = data , index =    59 ***

 ******  
 **

  ******  transient analysis tnom=  25.000 temp=  25.000 *****
 td= 1.3215e-10  targ= 1.8215e-10   trig= 5.0000e-11

          ***** job concluded

   *** data name = data , index =    60 ***

 ******  
 **

  ******  transient analysis tnom=  25.000 temp=  25.000 *****
 td= 1.3358e-10  targ= 1.8358e-10   trig= 5.0000e-11

          ***** job concluded

   *** data name = data , index =    61 ***

 ******  
 **

  ******  transient analysis tnom=  25.000 temp=  25.000 *****
 td= 1.3197e-10  targ= 1.8197e-10   trig= 5.0000e-11

          ***** job concluded

   *** data name = data , index =    62 ***

 ******  
 **

  ******  transient analysis tnom=  25.000 temp=  25.000 *****
 td= 1.3410e-10  targ= 1.8410e-10   trig= 5.0000e-11

          ***** job concluded

   *** data name = data , index =    63 ***

 ******  
 **

  ******  transient analysis tnom=  25.000 temp=  25.000 *****
 td= 1.3323e-10  targ= 1.8323e-10   trig= 5.0000e-11

          ***** job concluded

   *** data name = data , index =    64 ***

 ******  
 **

  ******  transient analysis tnom=  25.000 temp=  25.000 *****
 td= 1.3230e-10  targ= 1.8230e-10   trig= 5.0000e-11

          ***** job concluded

   *** data name = data , index =    65 ***

 ******  
 **

  ******  transient analysis tnom=  25.000 temp=  25.000 *****
 td= 1.3092e-10  targ= 1.8092e-10   trig= 5.0000e-11

          ***** job concluded

   *** data name = data , index =    66 ***

 ******  
 **

  ******  transient analysis tnom=  25.000 temp=  25.000 *****
 td= 1.3501e-10  targ= 1.8501e-10   trig= 5.0000e-11

          ***** job concluded

   *** data name = data , index =    67 ***

 ******  
 **

  ******  transient analysis tnom=  25.000 temp=  25.000 *****
 td= 1.3301e-10  targ= 1.8301e-10   trig= 5.0000e-11

          ***** job concluded

   *** data name = data , index =    68 ***

 ******  
 **

  ******  transient analysis tnom=  25.000 temp=  25.000 *****
 td= 1.2694e-10  targ= 1.7694e-10   trig= 5.0000e-11

          ***** job concluded

   *** data name = data , index =    69 ***

 ******  
 **

  ******  transient analysis tnom=  25.000 temp=  25.000 *****
 td= 1.3336e-10  targ= 1.8336e-10   trig= 5.0000e-11

          ***** job concluded

   *** data name = data , index =    70 ***

 ******  
 **

  ******  transient analysis tnom=  25.000 temp=  25.000 *****
 td= 1.3463e-10  targ= 1.8463e-10   trig= 5.0000e-11

          ***** job concluded

   *** data name = data , index =    71 ***

 ******  
 **

  ******  transient analysis tnom=  25.000 temp=  25.000 *****
 td= 1.2918e-10  targ= 1.7918e-10   trig= 5.0000e-11

          ***** job concluded

   *** data name = data , index =    72 ***

 ******  
 **

  ******  transient analysis tnom=  25.000 temp=  25.000 *****
 td= 1.3242e-10  targ= 1.8242e-10   trig= 5.0000e-11

          ***** job concluded

   *** data name = data , index =    73 ***

 ******  
 **

  ******  transient analysis tnom=  25.000 temp=  25.000 *****
 td= 1.3245e-10  targ= 1.8245e-10   trig= 5.0000e-11

          ***** job concluded

   *** data name = data , index =    74 ***

 ******  
 **

  ******  transient analysis tnom=  25.000 temp=  25.000 *****
 td= 1.3483e-10  targ= 1.8483e-10   trig= 5.0000e-11

          ***** job concluded

   *** data name = data , index =    75 ***

 ******  
 **

  ******  transient analysis tnom=  25.000 temp=  25.000 *****
 td= 1.3367e-10  targ= 1.8367e-10   trig= 5.0000e-11

          ***** job concluded

   *** data name = data , index =    76 ***

 ******  
 **

  ******  transient analysis tnom=  25.000 temp=  25.000 *****
 td= 1.3356e-10  targ= 1.8356e-10   trig= 5.0000e-11

          ***** job concluded

   *** data name = data , index =    77 ***

 ******  
 **

  ******  transient analysis tnom=  25.000 temp=  25.000 *****
 td= 1.3540e-10  targ= 1.8540e-10   trig= 5.0000e-11

          ***** job concluded

   *** data name = data , index =    78 ***

 ******  
 **

  ******  transient analysis tnom=  25.000 temp=  25.000 *****
 td= 1.3415e-10  targ= 1.8415e-10   trig= 5.0000e-11

          ***** job concluded

   *** data name = data , index =    79 ***

 ******  
 **

  ******  transient analysis tnom=  25.000 temp=  25.000 *****
 td= 1.3406e-10  targ= 1.8406e-10   trig= 5.0000e-11

          ***** job concluded

   *** data name = data , index =    80 ***

 ******  
 **

  ******  transient analysis tnom=  25.000 temp=  25.000 *****
 td= 1.3268e-10  targ= 1.8268e-10   trig= 5.0000e-11

          ***** job concluded

   *** data name = data , index =    81 ***

 ******  
 **

  ******  transient analysis tnom=  25.000 temp=  25.000 *****
 td= 1.3273e-10  targ= 1.8273e-10   trig= 5.0000e-11

          ***** job concluded

   *** data name = data , index =    82 ***

 ******  
 **

  ******  transient analysis tnom=  25.000 temp=  25.000 *****
 td= 1.3556e-10  targ= 1.8556e-10   trig= 5.0000e-11

          ***** job concluded

   *** data name = data , index =    83 ***

 ******  
 **

  ******  transient analysis tnom=  25.000 temp=  25.000 *****
 td= 1.3342e-10  targ= 1.8342e-10   trig= 5.0000e-11

          ***** job concluded

   *** data name = data , index =    84 ***

 ******  
 **

  ******  transient analysis tnom=  25.000 temp=  25.000 *****
 td= 1.3354e-10  targ= 1.8354e-10   trig= 5.0000e-11

          ***** job concluded

   *** data name = data , index =    85 ***

 ******  
 **

  ******  transient analysis tnom=  25.000 temp=  25.000 *****
 td= 1.3243e-10  targ= 1.8243e-10   trig= 5.0000e-11

          ***** job concluded

   *** data name = data , index =    86 ***

 ******  
 **

  ******  transient analysis tnom=  25.000 temp=  25.000 *****
 td= 1.3310e-10  targ= 1.8310e-10   trig= 5.0000e-11

          ***** job concluded

   *** data name = data , index =    87 ***

 ******  
 **

  ******  transient analysis tnom=  25.000 temp=  25.000 *****
 td= 1.3373e-10  targ= 1.8373e-10   trig= 5.0000e-11

          ***** job concluded

   *** data name = data , index =    88 ***

 ******  
 **

  ******  transient analysis tnom=  25.000 temp=  25.000 *****
 td= 1.3333e-10  targ= 1.8333e-10   trig= 5.0000e-11

          ***** job concluded

   *** data name = data , index =    89 ***

 ******  
 **

  ******  transient analysis tnom=  25.000 temp=  25.000 *****
 td= 1.3522e-10  targ= 1.8522e-10   trig= 5.0000e-11

          ***** job concluded

   *** data name = data , index =    90 ***

 ******  
 **

  ******  transient analysis tnom=  25.000 temp=  25.000 *****
 td= 1.3537e-10  targ= 1.8537e-10   trig= 5.0000e-11

          ***** job concluded

   *** data name = data , index =    91 ***

 ******  
 **

  ******  transient analysis tnom=  25.000 temp=  25.000 *****
 td= 1.3473e-10  targ= 1.8473e-10   trig= 5.0000e-11

          ***** job concluded

   *** data name = data , index =    92 ***

 ******  
 **

  ******  transient analysis tnom=  25.000 temp=  25.000 *****
 td= 1.3246e-10  targ= 1.8246e-10   trig= 5.0000e-11

          ***** job concluded

   *** data name = data , index =    93 ***

 ******  
 **

  ******  transient analysis tnom=  25.000 temp=  25.000 *****
 td= 1.3134e-10  targ= 1.8134e-10   trig= 5.0000e-11

          ***** job concluded

   *** data name = data , index =    94 ***

 ******  
 **

  ******  transient analysis tnom=  25.000 temp=  25.000 *****
 td= 1.3171e-10  targ= 1.8171e-10   trig= 5.0000e-11

          ***** job concluded

   *** data name = data , index =    95 ***

 ******  
 **

  ******  transient analysis tnom=  25.000 temp=  25.000 *****
 td= 1.3497e-10  targ= 1.8497e-10   trig= 5.0000e-11

          ***** job concluded

   *** data name = data , index =    96 ***

 ******  
 **

  ******  transient analysis tnom=  25.000 temp=  25.000 *****
 td= 1.2702e-10  targ= 1.7702e-10   trig= 5.0000e-11

          ***** job concluded

   *** data name = data , index =    97 ***

 ******  
 **

  ******  transient analysis tnom=  25.000 temp=  25.000 *****
 td= 1.3314e-10  targ= 1.8314e-10   trig= 5.0000e-11

          ***** job concluded

   *** data name = data , index =    98 ***

 ******  
 **

  ******  transient analysis tnom=  25.000 temp=  25.000 *****
 td= 1.3436e-10  targ= 1.8436e-10   trig= 5.0000e-11

          ***** job concluded

   *** data name = data , index =    99 ***

 ******  
 **

  ******  transient analysis tnom=  25.000 temp=  25.000 *****
 td= 1.3406e-10  targ= 1.8406e-10   trig= 5.0000e-11

          ***** job concluded

   *** data name = data , index =   100 ***

 ******  
 **

  ******  transient analysis tnom=  25.000 temp=  25.000 *****
 td= 1.3495e-10  targ= 1.8495e-10   trig= 5.0000e-11

          ***** job concluded
1****** HSPICE -- G-2012.06 64-BIT (May 27 2012) RHEL64 ******                  
 ******  
 **

  ******  job statistics summary tnom=  25.000 temp=  25.000 *****
  
  
 ******  Machine Information  ******
 CPU:
 model name	: Intel(R) Xeon(R) CPU E5-2630 v3 @ 2.40GHz
 cpu MHz	: 1200.000
  
 OS:
 Linux version 2.6.32-696.30.1.el6.x86_64 (mockbuild@x86-033.build.eng.bos.redhat.com) (gcc version 4.4.7 20120313 (Red Hat 4.4.7-18) (GCC) ) #1 SMP Fri May 18 11:50:44 EDT 2018


  ******  HSPICE Threads Information  ******

  Command Line Threads Count :     1
  Available CPU Count        :    32
  Actual Threads Count       :     1


  ******  Circuit Statistics  ******
  # nodes       =     153 # elements   =      62
  # resistors   =       0 # capacitors =       0 # inductors   =       0
  # mutual_inds =       0 # vccs       =       0 # vcvs        =       0
  # cccs        =       0 # ccvs       =       0 # volt_srcs   =       2
  # curr_srcs   =       0 # diodes     =       0 # bjts        =       0
  # jfets       =       0 # mosfets    =      60 # U elements  =       0
  # T elements  =       0 # W elements =       0 # B elements  =       0
  # S elements  =       0 # P elements =       0 # va device   =       0
  # vector_srcs =       0 # N elements =       0


  ******  Runtime Statistics (seconds)  ******

  analysis           time    # points   tot. iter  conv.iter
  op point           0.09           1         400
  transient          2.69       20100       25361        8695 rev=        96
  readin             0.26
  errchk             0.09
  setup              0.00
  output             0.00


           peak memory used        151.41 megabytes
           total cpu time            3.17 seconds
           total elapsed time        3.47 seconds
           job started at     22:46:32 06/12/2018
           job ended   at     22:46:35 06/12/2018


 lic: Release hspice token(s) 
 lic: total license checkout elapse time:        0.21(s)
