$DATA1 SOURCE='HSPICE' VERSION='G-2012.06 64-BIT'
.TITLE '**'
 index            toxe_p11         xl_p11           xw_p11            
                  vth0_p11         u0_p11           voff_p11          
                  toxe_p12         xl_p12           xw_p12            
                  vth0_p12         u0_p12           voff_p12          
                  toxe_p13         xl_p13           xw_p13            
                  vth0_p13         u0_p13           voff_p13          
                  toxe_n11         xl_n11           xw_n11            
                  vth0_n11         u0_n11           voff_n11          
                  toxe_n12         xl_n12           xw_n12            
                  vth0_n12         u0_n12           voff_n12          
                  toxe_n13         xl_n13           xw_n13            
                  vth0_n13         u0_n13           voff_n13          
                  toxe_p21         xl_p21           xw_p21            
                  vth0_p21         u0_p21           voff_p21          
                  toxe_p22         xl_p22           xw_p22            
                  vth0_p22         u0_p22           voff_p22          
                  toxe_p23         xl_p23           xw_p23            
                  vth0_p23         u0_p23           voff_p23          
                  toxe_n21         xl_n21           xw_n21            
                  vth0_n21         u0_n21           voff_n21          
                  toxe_n22         xl_n22           xw_n22            
                  vth0_n22         u0_n22           voff_n22          
                  toxe_n23         xl_n23           xw_n23            
                  vth0_n23         u0_n23           voff_n23          
                  toxe_p31         xl_p31           xw_p31            
                  vth0_p31         u0_p31           voff_p31          
                  toxe_p32         xl_p32           xw_p32            
                  vth0_p32         u0_p32           voff_p32          
                  toxe_p33         xl_p33           xw_p33            
                  vth0_p33         u0_p33           voff_p33          
                  toxe_n31         xl_n31           xw_n31            
                  vth0_n31         u0_n31           voff_n31          
                  toxe_n32         xl_n32           xw_n32            
                  vth0_n32         u0_n32           voff_n32          
                  toxe_n33         xl_n33           xw_n33            
                  vth0_n33         u0_n33           voff_n33          
                  toxe_p41         xl_p41           xw_p41            
                  vth0_p41         u0_p41           voff_p41          
                  toxe_p42         xl_p42           xw_p42            
                  vth0_p42         u0_p42           voff_p42          
                  toxe_p43         xl_p43           xw_p43            
                  vth0_p43         u0_p43           voff_p43          
                  toxe_n41         xl_n41           xw_n41            
                  vth0_n41         u0_n41           voff_n41          
                  toxe_n42         xl_n42           xw_n42            
                  vth0_n42         u0_n42           voff_n42          
                  toxe_n43         xl_n43           xw_n43            
                  vth0_n43         u0_n43           voff_n43          
                  toxe_p51         xl_p51           xw_p51            
                  vth0_p51         u0_p51           voff_p51          
                  toxe_p52         xl_p52           xw_p52            
                  vth0_p52         u0_p52           voff_p52          
                  toxe_p53         xl_p53           xw_p53            
                  vth0_p53         u0_p53           voff_p53          
                  toxe_n51         xl_n51           xw_n51            
                  vth0_n51         u0_n51           voff_n51          
                  toxe_n52         xl_n52           xw_n52            
                  vth0_n52         u0_n52           voff_n52          
                  toxe_n53         xl_n53           xw_n53            
                  vth0_n53         u0_n53           voff_n53          
                  toxe_p61         xl_p61           xw_p61            
                  vth0_p61         u0_p61           voff_p61          
                  toxe_p62         xl_p62           xw_p62            
                  vth0_p62         u0_p62           voff_p62          
                  toxe_p63         xl_p63           xw_p63            
                  vth0_p63         u0_p63           voff_p63          
                  toxe_n61         xl_n61           xw_n61            
                  vth0_n61         u0_n61           voff_n61          
                  toxe_n62         xl_n62           xw_n62            
                  vth0_n62         u0_n62           voff_n62          
                  toxe_n63         xl_n63           xw_n63            
                  vth0_n63         u0_n63           voff_n63          
                  toxe_p71         xl_p71           xw_p71            
                  vth0_p71         u0_p71           voff_p71          
                  toxe_p72         xl_p72           xw_p72            
                  vth0_p72         u0_p72           voff_p72          
                  toxe_p73         xl_p73           xw_p73            
                  vth0_p73         u0_p73           voff_p73          
                  toxe_n71         xl_n71           xw_n71            
                  vth0_n71         u0_n71           voff_n71          
                  toxe_n72         xl_n72           xw_n72            
                  vth0_n72         u0_n72           voff_n72          
                  toxe_n73         xl_n73           xw_n73            
                  vth0_n73         u0_n73           voff_n73          
                  toxe_p81         xl_p81           xw_p81            
                  vth0_p81         u0_p81           voff_p81          
                  toxe_p82         xl_p82           xw_p82            
                  vth0_p82         u0_p82           voff_p82          
                  toxe_p83         xl_p83           xw_p83            
                  vth0_p83         u0_p83           voff_p83          
                  toxe_n81         xl_n81           xw_n81            
                  vth0_n81         u0_n81           voff_n81          
                  toxe_n82         xl_n82           xw_n82            
                  vth0_n82         u0_n82           voff_n82          
                  toxe_n83         xl_n83           xw_n83            
                  vth0_n83         u0_n83           voff_n83          
                  toxe_p91         xl_p91           xw_p91            
                  vth0_p91         u0_p91           voff_p91          
                  toxe_p92         xl_p92           xw_p92            
                  vth0_p92         u0_p92           voff_p92          
                  toxe_p93         xl_p93           xw_p93            
                  vth0_p93         u0_p93           voff_p93          
                  toxe_n91         xl_n91           xw_n91            
                  vth0_n91         u0_n91           voff_n91          
                  toxe_n92         xl_n92           xw_n92            
                  vth0_n92         u0_n92           voff_n92          
                  toxe_n93         xl_n93           xw_n93            
                  vth0_n93         u0_n93           voff_n93          
                  toxe_p101        xl_p101          xw_p101           
                  vth0_p101        u0_p101          voff_p101         
                  toxe_p102        xl_p102          xw_p102           
                  vth0_p102        u0_p102          voff_p102         
                  toxe_p103        xl_p103          xw_p103           
                  vth0_p103        u0_p103          voff_p103         
                  toxe_n101        xl_n101          xw_n101           
                  vth0_n101        u0_n101          voff_n101         
                  toxe_n102        xl_n102          xw_n102           
                  vth0_n102        u0_n102          voff_n102         
                  toxe_n103        xl_n103          xw_n103           
                  vth0_n103        u0_n103          voff_n103         
                  td               temper           alter#            
 1                 2.700e-09        5.100e-09        1.800e-08        
                  -3.875e-01        8.834e-03       -1.500e-01        
                   2.700e-09        5.100e-09        1.800e-08        
                  -4.029e-01        8.818e-03       -1.492e-01        
                   2.700e-09        5.100e-09        1.800e-08        
                  -3.930e-01        8.765e-03       -1.515e-01        
                   2.370e-09        5.800e-09        1.700e-08        
                   3.059e-01        2.604e-02       -1.641e-01        
                   2.370e-09        5.800e-09        1.700e-08        
                   3.065e-01        2.605e-02       -1.783e-01        
                   2.370e-09        5.800e-09        1.700e-08        
                   3.203e-01        2.605e-02       -1.623e-01        
                   2.700e-09        5.100e-09        1.800e-08        
                  -3.999e-01        8.794e-03       -1.509e-01        
                   2.700e-09        5.100e-09        1.800e-08        
                  -3.986e-01        8.798e-03       -1.523e-01        
                   2.700e-09        5.100e-09        1.800e-08        
                  -4.181e-01        8.780e-03       -1.496e-01        
                   2.370e-09        5.800e-09        1.700e-08        
                   3.364e-01        2.605e-02       -1.698e-01        
                   2.370e-09        5.800e-09        1.700e-08        
                   3.302e-01        2.605e-02       -1.848e-01        
                   2.370e-09        5.800e-09        1.700e-08        
                   3.330e-01        2.605e-02       -1.629e-01        
                   2.700e-09        5.100e-09        1.800e-08        
                  -3.695e-01        8.749e-03       -1.514e-01        
                   2.700e-09        5.100e-09        1.800e-08        
                  -3.877e-01        8.802e-03       -1.494e-01        
                   2.700e-09        5.100e-09        1.800e-08        
                  -4.001e-01        8.746e-03       -1.473e-01        
                   2.370e-09        5.800e-09        1.700e-08        
                   3.373e-01        2.605e-02       -1.424e-01        
                   2.370e-09        5.800e-09        1.700e-08        
                   3.260e-01        2.605e-02       -1.612e-01        
                   2.370e-09        5.800e-09        1.700e-08        
                   3.181e-01        2.604e-02       -1.514e-01        
                   2.700e-09        5.100e-09        1.800e-08        
                  -4.047e-01        8.713e-03       -1.496e-01        
                   2.700e-09        5.100e-09        1.800e-08        
                  -3.864e-01        8.825e-03       -1.527e-01        
                   2.700e-09        5.100e-09        1.800e-08        
                  -3.965e-01        8.803e-03       -1.490e-01        
                   2.370e-09        5.800e-09        1.700e-08        
                   3.513e-01        2.606e-02       -1.798e-01        
                   2.370e-09        5.800e-09        1.700e-08        
                   3.223e-01        2.605e-02       -1.461e-01        
                   2.370e-09        5.800e-09        1.700e-08        
                   3.426e-01        2.604e-02       -1.716e-01        
                   2.700e-09        5.100e-09        1.800e-08        
                  -3.992e-01        8.729e-03       -1.505e-01        
                   2.700e-09        5.100e-09        1.800e-08        
                  -3.903e-01        8.813e-03       -1.477e-01        
                   2.700e-09        5.100e-09        1.800e-08        
                  -3.831e-01        8.843e-03       -1.479e-01        
                   2.370e-09        5.800e-09        1.700e-08        
                   3.263e-01        2.605e-02       -1.647e-01        
                   2.370e-09        5.800e-09        1.700e-08        
                   3.292e-01        2.605e-02       -1.464e-01        
                   2.370e-09        5.800e-09        1.700e-08        
                   3.243e-01        2.605e-02       -1.589e-01        
                   2.700e-09        5.100e-09        1.800e-08        
                  -3.977e-01        8.767e-03       -1.501e-01        
                   2.700e-09        5.100e-09        1.800e-08        
                  -3.787e-01        8.759e-03       -1.474e-01        
                   2.700e-09        5.100e-09        1.800e-08        
                  -3.892e-01        8.846e-03       -1.492e-01        
                   2.370e-09        5.800e-09        1.700e-08        
                   3.332e-01        2.604e-02       -1.630e-01        
                   2.370e-09        5.800e-09        1.700e-08        
                   3.443e-01        2.604e-02       -1.319e-01        
                   2.370e-09        5.800e-09        1.700e-08        
                   3.382e-01        2.605e-02       -1.559e-01        
                   2.700e-09        5.100e-09        1.800e-08        
                  -4.145e-01        8.943e-03       -1.482e-01        
                   2.700e-09        5.100e-09        1.800e-08        
                  -3.918e-01        8.774e-03       -1.534e-01        
                   2.700e-09        5.100e-09        1.800e-08        
                  -3.949e-01        8.788e-03       -1.506e-01        
                   2.370e-09        5.800e-09        1.700e-08        
                   3.376e-01        2.605e-02       -1.667e-01        
                   2.370e-09        5.800e-09        1.700e-08        
                   3.320e-01        2.606e-02       -1.470e-01        
                   2.370e-09        5.800e-09        1.700e-08        
                   3.310e-01        2.605e-02       -1.556e-01        
                   2.700e-09        5.100e-09        1.800e-08        
                  -3.941e-01        8.781e-03       -1.458e-01        
                   2.700e-09        5.100e-09        1.800e-08        
                  -3.958e-01        8.810e-03       -1.518e-01        
                   2.700e-09        5.100e-09        1.800e-08        
                  -4.054e-01        8.801e-03       -1.499e-01        
                   2.370e-09        5.800e-09        1.700e-08        
                   3.427e-01        2.605e-02       -1.500e-01        
                   2.370e-09        5.800e-09        1.700e-08        
                   3.171e-01        2.604e-02       -1.241e-01        
                   2.370e-09        5.800e-09        1.700e-08        
                   3.332e-01        2.605e-02       -1.861e-01        
                   2.700e-09        5.100e-09        1.800e-08        
                  -3.791e-01        8.869e-03       -1.504e-01        
                   2.700e-09        5.100e-09        1.800e-08        
                  -4.023e-01        8.736e-03       -1.489e-01        
                   2.700e-09        5.100e-09        1.800e-08        
                  -3.783e-01        8.814e-03       -1.499e-01        
                   2.370e-09        5.800e-09        1.700e-08        
                   3.207e-01        2.603e-02       -1.506e-01        
                   2.370e-09        5.800e-09        1.700e-08        
                   3.401e-01        2.605e-02       -1.562e-01        
                   2.370e-09        5.800e-09        1.700e-08        
                   3.252e-01        2.605e-02       -1.525e-01        
                   2.700e-09        5.100e-09        1.800e-08        
                  -4.021e-01        8.716e-03       -1.521e-01        
                   2.700e-09        5.100e-09        1.800e-08        
                  -4.051e-01        8.801e-03       -1.505e-01        
                   2.700e-09        5.100e-09        1.800e-08        
                  -3.828e-01        8.832e-03       -1.502e-01        
                   2.370e-09        5.800e-09        1.700e-08        
                   3.344e-01        2.605e-02       -1.618e-01        
                   2.370e-09        5.800e-09        1.700e-08        
                   3.196e-01        2.605e-02       -1.827e-01        
                   2.370e-09        5.800e-09        1.700e-08        
                   3.350e-01        2.605e-02       -1.415e-01        
                   1.315e-10        2.500e+01       1                 
 2                 2.700e-09        5.100e-09        1.800e-08        
                  -3.939e-01        8.782e-03       -1.484e-01        
                   2.700e-09        5.100e-09        1.800e-08        
                  -4.102e-01        8.792e-03       -1.493e-01        
                   2.700e-09        5.100e-09        1.800e-08        
                  -4.072e-01        8.812e-03       -1.517e-01        
                   2.370e-09        5.800e-09        1.700e-08        
                   3.198e-01        2.606e-02       -1.474e-01        
                   2.370e-09        5.800e-09        1.700e-08        
                   3.451e-01        2.606e-02       -1.608e-01        
                   2.370e-09        5.800e-09        1.700e-08        
                   3.260e-01        2.604e-02       -1.674e-01        
                   2.700e-09        5.100e-09        1.800e-08        
                  -4.036e-01        8.735e-03       -1.510e-01        
                   2.700e-09        5.100e-09        1.800e-08        
                  -3.813e-01        8.801e-03       -1.498e-01        
                   2.700e-09        5.100e-09        1.800e-08        
                  -4.032e-01        8.818e-03       -1.469e-01        
                   2.370e-09        5.800e-09        1.700e-08        
                   3.229e-01        2.606e-02       -1.404e-01        
                   2.370e-09        5.800e-09        1.700e-08        
                   3.197e-01        2.606e-02       -1.525e-01        
                   2.370e-09        5.800e-09        1.700e-08        
                   3.546e-01        2.605e-02       -1.480e-01        
                   2.700e-09        5.100e-09        1.800e-08        
                  -3.849e-01        8.793e-03       -1.489e-01        
                   2.700e-09        5.100e-09        1.800e-08        
                  -3.950e-01        8.838e-03       -1.496e-01        
                   2.700e-09        5.100e-09        1.800e-08        
                  -3.922e-01        8.896e-03       -1.508e-01        
                   2.370e-09        5.800e-09        1.700e-08        
                   3.416e-01        2.605e-02       -1.609e-01        
                   2.370e-09        5.800e-09        1.700e-08        
                   3.328e-01        2.605e-02       -1.506e-01        
                   2.370e-09        5.800e-09        1.700e-08        
                   3.295e-01        2.606e-02       -1.523e-01        
                   2.700e-09        5.100e-09        1.800e-08        
                  -3.946e-01        8.857e-03       -1.481e-01        
                   2.700e-09        5.100e-09        1.800e-08        
                  -4.209e-01        8.823e-03       -1.506e-01        
                   2.700e-09        5.100e-09        1.800e-08        
                  -3.844e-01        8.884e-03       -1.505e-01        
                   2.370e-09        5.800e-09        1.700e-08        
                   3.397e-01        2.605e-02       -1.432e-01        
                   2.370e-09        5.800e-09        1.700e-08        
                   3.128e-01        2.605e-02       -1.653e-01        
                   2.370e-09        5.800e-09        1.700e-08        
                   3.442e-01        2.605e-02       -1.700e-01        
                   2.700e-09        5.100e-09        1.800e-08        
                  -3.957e-01        8.818e-03       -1.487e-01        
                   2.700e-09        5.100e-09        1.800e-08        
                  -3.915e-01        8.722e-03       -1.506e-01        
                   2.700e-09        5.100e-09        1.800e-08        
                  -3.941e-01        8.836e-03       -1.501e-01        
                   2.370e-09        5.800e-09        1.700e-08        
                   3.172e-01        2.604e-02       -1.642e-01        
                   2.370e-09        5.800e-09        1.700e-08        
                   3.255e-01        2.605e-02       -1.523e-01        
                   2.370e-09        5.800e-09        1.700e-08        
                   3.470e-01        2.605e-02       -1.375e-01        
                   2.700e-09        5.100e-09        1.800e-08        
                  -3.997e-01        8.771e-03       -1.489e-01        
                   2.700e-09        5.100e-09        1.800e-08        
                  -4.119e-01        8.851e-03       -1.511e-01        
                   2.700e-09        5.100e-09        1.800e-08        
                  -3.984e-01        8.836e-03       -1.525e-01        
                   2.370e-09        5.800e-09        1.700e-08        
                   3.287e-01        2.606e-02       -1.657e-01        
                   2.370e-09        5.800e-09        1.700e-08        
                   3.144e-01        2.604e-02       -1.383e-01        
                   2.370e-09        5.800e-09        1.700e-08        
                   3.193e-01        2.605e-02       -1.328e-01        
                   2.700e-09        5.100e-09        1.800e-08        
                  -4.030e-01        8.823e-03       -1.501e-01        
                   2.700e-09        5.100e-09        1.800e-08        
                  -4.191e-01        8.808e-03       -1.503e-01        
                   2.700e-09        5.100e-09        1.800e-08        
                  -3.770e-01        8.858e-03       -1.517e-01        
                   2.370e-09        5.800e-09        1.700e-08        
                   3.155e-01        2.605e-02       -1.551e-01        
                   2.370e-09        5.800e-09        1.700e-08        
                   3.290e-01        2.605e-02       -1.332e-01        
                   2.370e-09        5.800e-09        1.700e-08        
                   3.390e-01        2.605e-02       -1.375e-01        
                   2.700e-09        5.100e-09        1.800e-08        
                  -3.874e-01        8.842e-03       -1.494e-01        
                   2.700e-09        5.100e-09        1.800e-08        
                  -4.083e-01        8.863e-03       -1.484e-01        
                   2.700e-09        5.100e-09        1.800e-08        
                  -3.835e-01        8.792e-03       -1.521e-01        
                   2.370e-09        5.800e-09        1.700e-08        
                   3.489e-01        2.605e-02       -1.380e-01        
                   2.370e-09        5.800e-09        1.700e-08        
                   3.467e-01        2.605e-02       -1.528e-01        
                   2.370e-09        5.800e-09        1.700e-08        
                   3.389e-01        2.605e-02       -1.567e-01        
                   2.700e-09        5.100e-09        1.800e-08        
                  -3.965e-01        8.749e-03       -1.500e-01        
                   2.700e-09        5.100e-09        1.800e-08        
                  -3.998e-01        8.730e-03       -1.509e-01        
                   2.700e-09        5.100e-09        1.800e-08        
                  -4.068e-01        8.857e-03       -1.517e-01        
                   2.370e-09        5.800e-09        1.700e-08        
                   3.384e-01        2.604e-02       -1.641e-01        
                   2.370e-09        5.800e-09        1.700e-08        
                   3.335e-01        2.605e-02       -1.649e-01        
                   2.370e-09        5.800e-09        1.700e-08        
                   3.403e-01        2.604e-02       -1.660e-01        
                   2.700e-09        5.100e-09        1.800e-08        
                  -4.032e-01        8.828e-03       -1.490e-01        
                   2.700e-09        5.100e-09        1.800e-08        
                  -4.070e-01        8.781e-03       -1.497e-01        
                   2.700e-09        5.100e-09        1.800e-08        
                  -4.192e-01        8.796e-03       -1.491e-01        
                   2.370e-09        5.800e-09        1.700e-08        
                   3.102e-01        2.605e-02       -1.639e-01        
                   2.370e-09        5.800e-09        1.700e-08        
                   3.351e-01        2.604e-02       -1.775e-01        
                   2.370e-09        5.800e-09        1.700e-08        
                   3.397e-01        2.605e-02       -1.474e-01        
                   1.331e-10        2.500e+01       1                 
 3                 2.700e-09        5.100e-09        1.800e-08        
                  -4.034e-01        8.884e-03       -1.508e-01        
                   2.700e-09        5.100e-09        1.800e-08        
                  -4.059e-01        8.876e-03       -1.534e-01        
                   2.700e-09        5.100e-09        1.800e-08        
                  -3.969e-01        8.857e-03       -1.505e-01        
                   2.370e-09        5.800e-09        1.700e-08        
                   3.427e-01        2.604e-02       -1.424e-01        
                   2.370e-09        5.800e-09        1.700e-08        
                   3.329e-01        2.606e-02       -1.381e-01        
                   2.370e-09        5.800e-09        1.700e-08        
                   3.195e-01        2.605e-02       -1.527e-01        
                   2.700e-09        5.100e-09        1.800e-08        
                  -3.850e-01        8.837e-03       -1.504e-01        
                   2.700e-09        5.100e-09        1.800e-08        
                  -3.925e-01        8.825e-03       -1.519e-01        
                   2.700e-09        5.100e-09        1.800e-08        
                  -4.114e-01        8.799e-03       -1.494e-01        
                   2.370e-09        5.800e-09        1.700e-08        
                   3.230e-01        2.605e-02       -1.492e-01        
                   2.370e-09        5.800e-09        1.700e-08        
                   3.017e-01        2.605e-02       -1.423e-01        
                   2.370e-09        5.800e-09        1.700e-08        
                   3.519e-01        2.604e-02       -1.708e-01        
                   2.700e-09        5.100e-09        1.800e-08        
                  -3.864e-01        8.746e-03       -1.504e-01        
                   2.700e-09        5.100e-09        1.800e-08        
                  -3.896e-01        8.851e-03       -1.492e-01        
                   2.700e-09        5.100e-09        1.800e-08        
                  -3.962e-01        8.794e-03       -1.460e-01        
                   2.370e-09        5.800e-09        1.700e-08        
                   3.283e-01        2.606e-02       -1.451e-01        
                   2.370e-09        5.800e-09        1.700e-08        
                   3.189e-01        2.605e-02       -1.535e-01        
                   2.370e-09        5.800e-09        1.700e-08        
                   3.244e-01        2.605e-02       -1.439e-01        
                   2.700e-09        5.100e-09        1.800e-08        
                  -3.709e-01        8.763e-03       -1.492e-01        
                   2.700e-09        5.100e-09        1.800e-08        
                  -4.126e-01        8.787e-03       -1.474e-01        
                   2.700e-09        5.100e-09        1.800e-08        
                  -3.886e-01        8.847e-03       -1.506e-01        
                   2.370e-09        5.800e-09        1.700e-08        
                   3.234e-01        2.604e-02       -1.738e-01        
                   2.370e-09        5.800e-09        1.700e-08        
                   3.216e-01        2.605e-02       -1.453e-01        
                   2.370e-09        5.800e-09        1.700e-08        
                   3.206e-01        2.605e-02       -1.510e-01        
                   2.700e-09        5.100e-09        1.800e-08        
                  -3.894e-01        8.763e-03       -1.464e-01        
                   2.700e-09        5.100e-09        1.800e-08        
                  -3.761e-01        8.819e-03       -1.494e-01        
                   2.700e-09        5.100e-09        1.800e-08        
                  -3.973e-01        8.785e-03       -1.509e-01        
                   2.370e-09        5.800e-09        1.700e-08        
                   3.177e-01        2.605e-02       -1.661e-01        
                   2.370e-09        5.800e-09        1.700e-08        
                   3.234e-01        2.605e-02       -1.623e-01        
                   2.370e-09        5.800e-09        1.700e-08        
                   3.233e-01        2.604e-02       -1.406e-01        
                   2.700e-09        5.100e-09        1.800e-08        
                  -3.987e-01        8.726e-03       -1.497e-01        
                   2.700e-09        5.100e-09        1.800e-08        
                  -4.039e-01        8.780e-03       -1.526e-01        
                   2.700e-09        5.100e-09        1.800e-08        
                  -3.706e-01        8.811e-03       -1.481e-01        
                   2.370e-09        5.800e-09        1.700e-08        
                   3.266e-01        2.604e-02       -1.546e-01        
                   2.370e-09        5.800e-09        1.700e-08        
                   3.277e-01        2.605e-02       -1.340e-01        
                   2.370e-09        5.800e-09        1.700e-08        
                   3.221e-01        2.605e-02       -1.433e-01        
                   2.700e-09        5.100e-09        1.800e-08        
                  -3.867e-01        8.784e-03       -1.486e-01        
                   2.700e-09        5.100e-09        1.800e-08        
                  -4.023e-01        8.801e-03       -1.494e-01        
                   2.700e-09        5.100e-09        1.800e-08        
                  -3.982e-01        8.828e-03       -1.494e-01        
                   2.370e-09        5.800e-09        1.700e-08        
                   3.293e-01        2.605e-02       -1.497e-01        
                   2.370e-09        5.800e-09        1.700e-08        
                   3.399e-01        2.606e-02       -1.457e-01        
                   2.370e-09        5.800e-09        1.700e-08        
                   3.391e-01        2.605e-02       -1.491e-01        
                   2.700e-09        5.100e-09        1.800e-08        
                  -3.840e-01        8.769e-03       -1.487e-01        
                   2.700e-09        5.100e-09        1.800e-08        
                  -4.032e-01        8.824e-03       -1.454e-01        
                   2.700e-09        5.100e-09        1.800e-08        
                  -3.843e-01        8.800e-03       -1.529e-01        
                   2.370e-09        5.800e-09        1.700e-08        
                   3.218e-01        2.605e-02       -1.637e-01        
                   2.370e-09        5.800e-09        1.700e-08        
                   3.202e-01        2.604e-02       -1.480e-01        
                   2.370e-09        5.800e-09        1.700e-08        
                   3.391e-01        2.605e-02       -1.567e-01        
                   2.700e-09        5.100e-09        1.800e-08        
                  -4.128e-01        8.809e-03       -1.514e-01        
                   2.700e-09        5.100e-09        1.800e-08        
                  -3.878e-01        8.738e-03       -1.496e-01        
                   2.700e-09        5.100e-09        1.800e-08        
                  -3.987e-01        8.757e-03       -1.508e-01        
                   2.370e-09        5.800e-09        1.700e-08        
                   3.334e-01        2.606e-02       -1.463e-01        
                   2.370e-09        5.800e-09        1.700e-08        
                   3.183e-01        2.606e-02       -1.334e-01        
                   2.370e-09        5.800e-09        1.700e-08        
                   3.323e-01        2.604e-02       -1.350e-01        
                   2.700e-09        5.100e-09        1.800e-08        
                  -3.837e-01        8.854e-03       -1.497e-01        
                   2.700e-09        5.100e-09        1.800e-08        
                  -3.814e-01        8.775e-03       -1.547e-01        
                   2.700e-09        5.100e-09        1.800e-08        
                  -3.984e-01        8.778e-03       -1.502e-01        
                   2.370e-09        5.800e-09        1.700e-08        
                   3.173e-01        2.605e-02       -1.645e-01        
                   2.370e-09        5.800e-09        1.700e-08        
                   3.172e-01        2.605e-02       -1.468e-01        
                   2.370e-09        5.800e-09        1.700e-08        
                   3.271e-01        2.604e-02       -1.419e-01        
                   1.315e-10        2.500e+01       1                 
 4                 2.700e-09        5.100e-09        1.800e-08        
                  -4.220e-01        8.810e-03       -1.503e-01        
                   2.700e-09        5.100e-09        1.800e-08        
                  -3.996e-01        8.807e-03       -1.480e-01        
                   2.700e-09        5.100e-09        1.800e-08        
                  -4.009e-01        8.881e-03       -1.513e-01        
                   2.370e-09        5.800e-09        1.700e-08        
                   3.394e-01        2.604e-02       -1.509e-01        
                   2.370e-09        5.800e-09        1.700e-08        
                   3.518e-01        2.605e-02       -1.315e-01        
                   2.370e-09        5.800e-09        1.700e-08        
                   3.197e-01        2.604e-02       -1.548e-01        
                   2.700e-09        5.100e-09        1.800e-08        
                  -3.695e-01        8.786e-03       -1.505e-01        
                   2.700e-09        5.100e-09        1.800e-08        
                  -3.995e-01        8.804e-03       -1.530e-01        
                   2.700e-09        5.100e-09        1.800e-08        
                  -3.927e-01        8.852e-03       -1.507e-01        
                   2.370e-09        5.800e-09        1.700e-08        
                   3.357e-01        2.605e-02       -1.262e-01        
                   2.370e-09        5.800e-09        1.700e-08        
                   3.584e-01        2.605e-02       -1.490e-01        
                   2.370e-09        5.800e-09        1.700e-08        
                   3.237e-01        2.604e-02       -1.632e-01        
                   2.700e-09        5.100e-09        1.800e-08        
                  -3.822e-01        8.903e-03       -1.484e-01        
                   2.700e-09        5.100e-09        1.800e-08        
                  -3.830e-01        8.789e-03       -1.455e-01        
                   2.700e-09        5.100e-09        1.800e-08        
                  -3.885e-01        8.799e-03       -1.490e-01        
                   2.370e-09        5.800e-09        1.700e-08        
                   3.373e-01        2.605e-02       -1.515e-01        
                   2.370e-09        5.800e-09        1.700e-08        
                   3.345e-01        2.605e-02       -1.360e-01        
                   2.370e-09        5.800e-09        1.700e-08        
                   3.279e-01        2.606e-02       -1.539e-01        
                   2.700e-09        5.100e-09        1.800e-08        
                  -3.745e-01        8.850e-03       -1.501e-01        
                   2.700e-09        5.100e-09        1.800e-08        
                  -4.029e-01        8.793e-03       -1.501e-01        
                   2.700e-09        5.100e-09        1.800e-08        
                  -4.027e-01        8.792e-03       -1.499e-01        
                   2.370e-09        5.800e-09        1.700e-08        
                   3.052e-01        2.606e-02       -1.494e-01        
                   2.370e-09        5.800e-09        1.700e-08        
                   3.363e-01        2.606e-02       -1.598e-01        
                   2.370e-09        5.800e-09        1.700e-08        
                   3.280e-01        2.605e-02       -1.305e-01        
                   2.700e-09        5.100e-09        1.800e-08        
                  -3.971e-01        8.798e-03       -1.505e-01        
                   2.700e-09        5.100e-09        1.800e-08        
                  -3.791e-01        8.867e-03       -1.498e-01        
                   2.700e-09        5.100e-09        1.800e-08        
                  -3.909e-01        8.833e-03       -1.493e-01        
                   2.370e-09        5.800e-09        1.700e-08        
                   3.125e-01        2.606e-02       -1.395e-01        
                   2.370e-09        5.800e-09        1.700e-08        
                   3.217e-01        2.605e-02       -1.432e-01        
                   2.370e-09        5.800e-09        1.700e-08        
                   3.323e-01        2.606e-02       -1.445e-01        
                   2.700e-09        5.100e-09        1.800e-08        
                  -4.074e-01        8.754e-03       -1.519e-01        
                   2.700e-09        5.100e-09        1.800e-08        
                  -3.858e-01        8.863e-03       -1.515e-01        
                   2.700e-09        5.100e-09        1.800e-08        
                  -4.025e-01        8.776e-03       -1.484e-01        
                   2.370e-09        5.800e-09        1.700e-08        
                   3.311e-01        2.605e-02       -1.507e-01        
                   2.370e-09        5.800e-09        1.700e-08        
                   3.199e-01        2.605e-02       -1.668e-01        
                   2.370e-09        5.800e-09        1.700e-08        
                   3.427e-01        2.605e-02       -1.909e-01        
                   2.700e-09        5.100e-09        1.800e-08        
                  -3.919e-01        8.830e-03       -1.510e-01        
                   2.700e-09        5.100e-09        1.800e-08        
                  -3.857e-01        8.865e-03       -1.487e-01        
                   2.700e-09        5.100e-09        1.800e-08        
                  -4.030e-01        8.844e-03       -1.505e-01        
                   2.370e-09        5.800e-09        1.700e-08        
                   3.110e-01        2.605e-02       -1.518e-01        
                   2.370e-09        5.800e-09        1.700e-08        
                   3.174e-01        2.605e-02       -1.577e-01        
                   2.370e-09        5.800e-09        1.700e-08        
                   3.301e-01        2.604e-02       -1.579e-01        
                   2.700e-09        5.100e-09        1.800e-08        
                  -4.041e-01        8.821e-03       -1.490e-01        
                   2.700e-09        5.100e-09        1.800e-08        
                  -4.053e-01        8.822e-03       -1.500e-01        
                   2.700e-09        5.100e-09        1.800e-08        
                  -3.820e-01        8.765e-03       -1.505e-01        
                   2.370e-09        5.800e-09        1.700e-08        
                   3.185e-01        2.606e-02       -1.381e-01        
                   2.370e-09        5.800e-09        1.700e-08        
                   3.385e-01        2.606e-02       -1.597e-01        
                   2.370e-09        5.800e-09        1.700e-08        
                   3.292e-01        2.605e-02       -1.562e-01        
                   2.700e-09        5.100e-09        1.800e-08        
                  -4.041e-01        8.776e-03       -1.533e-01        
                   2.700e-09        5.100e-09        1.800e-08        
                  -3.913e-01        8.786e-03       -1.509e-01        
                   2.700e-09        5.100e-09        1.800e-08        
                  -3.700e-01        8.792e-03       -1.506e-01        
                   2.370e-09        5.800e-09        1.700e-08        
                   3.348e-01        2.606e-02       -1.577e-01        
                   2.370e-09        5.800e-09        1.700e-08        
                   3.346e-01        2.605e-02       -1.600e-01        
                   2.370e-09        5.800e-09        1.700e-08        
                   3.162e-01        2.606e-02       -1.357e-01        
                   2.700e-09        5.100e-09        1.800e-08        
                  -3.964e-01        8.821e-03       -1.467e-01        
                   2.700e-09        5.100e-09        1.800e-08        
                  -3.930e-01        8.798e-03       -1.466e-01        
                   2.700e-09        5.100e-09        1.800e-08        
                  -4.131e-01        8.789e-03       -1.483e-01        
                   2.370e-09        5.800e-09        1.700e-08        
                   3.235e-01        2.605e-02       -1.599e-01        
                   2.370e-09        5.800e-09        1.700e-08        
                   3.349e-01        2.606e-02       -1.699e-01        
                   2.370e-09        5.800e-09        1.700e-08        
                   3.171e-01        2.604e-02       -1.476e-01        
                   1.325e-10        2.500e+01       1                 
 5                 2.700e-09        5.100e-09        1.800e-08        
                  -3.814e-01        8.832e-03       -1.479e-01        
                   2.700e-09        5.100e-09        1.800e-08        
                  -3.981e-01        8.812e-03       -1.483e-01        
                   2.700e-09        5.100e-09        1.800e-08        
                  -3.925e-01        8.832e-03       -1.517e-01        
                   2.370e-09        5.800e-09        1.700e-08        
                   3.203e-01        2.604e-02       -1.474e-01        
                   2.370e-09        5.800e-09        1.700e-08        
                   3.187e-01        2.606e-02       -1.490e-01        
                   2.370e-09        5.800e-09        1.700e-08        
                   3.518e-01        2.606e-02       -1.701e-01        
                   2.700e-09        5.100e-09        1.800e-08        
                  -3.841e-01        8.759e-03       -1.453e-01        
                   2.700e-09        5.100e-09        1.800e-08        
                  -3.812e-01        8.759e-03       -1.488e-01        
                   2.700e-09        5.100e-09        1.800e-08        
                  -4.263e-01        8.813e-03       -1.517e-01        
                   2.370e-09        5.800e-09        1.700e-08        
                   3.402e-01        2.605e-02       -1.405e-01        
                   2.370e-09        5.800e-09        1.700e-08        
                   3.243e-01        2.605e-02       -1.570e-01        
                   2.370e-09        5.800e-09        1.700e-08        
                   3.339e-01        2.605e-02       -1.281e-01        
                   2.700e-09        5.100e-09        1.800e-08        
                  -3.946e-01        8.830e-03       -1.476e-01        
                   2.700e-09        5.100e-09        1.800e-08        
                  -3.904e-01        8.886e-03       -1.518e-01        
                   2.700e-09        5.100e-09        1.800e-08        
                  -4.048e-01        8.841e-03       -1.515e-01        
                   2.370e-09        5.800e-09        1.700e-08        
                   3.171e-01        2.605e-02       -1.582e-01        
                   2.370e-09        5.800e-09        1.700e-08        
                   3.541e-01        2.604e-02       -1.516e-01        
                   2.370e-09        5.800e-09        1.700e-08        
                   3.225e-01        2.605e-02       -1.573e-01        
                   2.700e-09        5.100e-09        1.800e-08        
                  -3.912e-01        8.743e-03       -1.491e-01        
                   2.700e-09        5.100e-09        1.800e-08        
                  -3.973e-01        8.832e-03       -1.500e-01        
                   2.700e-09        5.100e-09        1.800e-08        
                  -3.775e-01        8.793e-03       -1.529e-01        
                   2.370e-09        5.800e-09        1.700e-08        
                   3.227e-01        2.605e-02       -1.442e-01        
                   2.370e-09        5.800e-09        1.700e-08        
                   3.334e-01        2.605e-02       -1.312e-01        
                   2.370e-09        5.800e-09        1.700e-08        
                   3.312e-01        2.604e-02       -1.586e-01        
                   2.700e-09        5.100e-09        1.800e-08        
                  -3.934e-01        8.792e-03       -1.501e-01        
                   2.700e-09        5.100e-09        1.800e-08        
                  -3.981e-01        8.796e-03       -1.526e-01        
                   2.700e-09        5.100e-09        1.800e-08        
                  -3.933e-01        8.771e-03       -1.500e-01        
                   2.370e-09        5.800e-09        1.700e-08        
                   3.486e-01        2.604e-02       -1.649e-01        
                   2.370e-09        5.800e-09        1.700e-08        
                   3.298e-01        2.605e-02       -1.237e-01        
                   2.370e-09        5.800e-09        1.700e-08        
                   3.202e-01        2.605e-02       -1.496e-01        
                   2.700e-09        5.100e-09        1.800e-08        
                  -3.961e-01        8.838e-03       -1.505e-01        
                   2.700e-09        5.100e-09        1.800e-08        
                  -3.922e-01        8.780e-03       -1.485e-01        
                   2.700e-09        5.100e-09        1.800e-08        
                  -3.995e-01        8.915e-03       -1.502e-01        
                   2.370e-09        5.800e-09        1.700e-08        
                   3.175e-01        2.605e-02       -1.489e-01        
                   2.370e-09        5.800e-09        1.700e-08        
                   3.296e-01        2.606e-02       -1.535e-01        
                   2.370e-09        5.800e-09        1.700e-08        
                   3.295e-01        2.605e-02       -1.497e-01        
                   2.700e-09        5.100e-09        1.800e-08        
                  -4.083e-01        8.814e-03       -1.491e-01        
                   2.700e-09        5.100e-09        1.800e-08        
                  -4.069e-01        8.801e-03       -1.509e-01        
                   2.700e-09        5.100e-09        1.800e-08        
                  -3.983e-01        8.782e-03       -1.503e-01        
                   2.370e-09        5.800e-09        1.700e-08        
                   3.484e-01        2.604e-02       -1.677e-01        
                   2.370e-09        5.800e-09        1.700e-08        
                   3.278e-01        2.605e-02       -1.595e-01        
                   2.370e-09        5.800e-09        1.700e-08        
                   3.162e-01        2.606e-02       -1.612e-01        
                   2.700e-09        5.100e-09        1.800e-08        
                  -3.838e-01        8.822e-03       -1.494e-01        
                   2.700e-09        5.100e-09        1.800e-08        
                  -4.097e-01        8.781e-03       -1.547e-01        
                   2.700e-09        5.100e-09        1.800e-08        
                  -3.998e-01        8.772e-03       -1.496e-01        
                   2.370e-09        5.800e-09        1.700e-08        
                   3.354e-01        2.605e-02       -1.753e-01        
                   2.370e-09        5.800e-09        1.700e-08        
                   3.354e-01        2.605e-02       -1.286e-01        
                   2.370e-09        5.800e-09        1.700e-08        
                   3.229e-01        2.604e-02       -1.525e-01        
                   2.700e-09        5.100e-09        1.800e-08        
                  -3.901e-01        8.799e-03       -1.507e-01        
                   2.700e-09        5.100e-09        1.800e-08        
                  -4.077e-01        8.811e-03       -1.497e-01        
                   2.700e-09        5.100e-09        1.800e-08        
                  -3.983e-01        8.808e-03       -1.491e-01        
                   2.370e-09        5.800e-09        1.700e-08        
                   3.117e-01        2.605e-02       -1.535e-01        
                   2.370e-09        5.800e-09        1.700e-08        
                   3.395e-01        2.605e-02       -1.393e-01        
                   2.370e-09        5.800e-09        1.700e-08        
                   3.422e-01        2.606e-02       -1.555e-01        
                   2.700e-09        5.100e-09        1.800e-08        
                  -3.805e-01        8.828e-03       -1.477e-01        
                   2.700e-09        5.100e-09        1.800e-08        
                  -3.946e-01        8.802e-03       -1.514e-01        
                   2.700e-09        5.100e-09        1.800e-08        
                  -3.984e-01        8.854e-03       -1.509e-01        
                   2.370e-09        5.800e-09        1.700e-08        
                   3.253e-01        2.605e-02       -1.481e-01        
                   2.370e-09        5.800e-09        1.700e-08        
                   3.257e-01        2.604e-02       -1.691e-01        
                   2.370e-09        5.800e-09        1.700e-08        
                   3.254e-01        2.605e-02       -1.757e-01        
                   1.327e-10        2.500e+01       1                 
 6                 2.700e-09        5.100e-09        1.800e-08        
                  -3.998e-01        8.803e-03       -1.489e-01        
                   2.700e-09        5.100e-09        1.800e-08        
                  -4.047e-01        8.763e-03       -1.505e-01        
                   2.700e-09        5.100e-09        1.800e-08        
                  -4.111e-01        8.830e-03       -1.501e-01        
                   2.370e-09        5.800e-09        1.700e-08        
                   3.249e-01        2.604e-02       -1.473e-01        
                   2.370e-09        5.800e-09        1.700e-08        
                   3.303e-01        2.604e-02       -1.902e-01        
                   2.370e-09        5.800e-09        1.700e-08        
                   3.297e-01        2.605e-02       -1.583e-01        
                   2.700e-09        5.100e-09        1.800e-08        
                  -3.829e-01        8.809e-03       -1.490e-01        
                   2.700e-09        5.100e-09        1.800e-08        
                  -3.944e-01        8.864e-03       -1.509e-01        
                   2.700e-09        5.100e-09        1.800e-08        
                  -4.122e-01        8.906e-03       -1.513e-01        
                   2.370e-09        5.800e-09        1.700e-08        
                   3.305e-01        2.605e-02       -1.732e-01        
                   2.370e-09        5.800e-09        1.700e-08        
                   3.215e-01        2.605e-02       -1.484e-01        
                   2.370e-09        5.800e-09        1.700e-08        
                   3.163e-01        2.604e-02       -1.551e-01        
                   2.700e-09        5.100e-09        1.800e-08        
                  -3.904e-01        8.817e-03       -1.473e-01        
                   2.700e-09        5.100e-09        1.800e-08        
                  -4.003e-01        8.874e-03       -1.504e-01        
                   2.700e-09        5.100e-09        1.800e-08        
                  -3.968e-01        8.851e-03       -1.527e-01        
                   2.370e-09        5.800e-09        1.700e-08        
                   3.265e-01        2.605e-02       -1.753e-01        
                   2.370e-09        5.800e-09        1.700e-08        
                   3.195e-01        2.604e-02       -1.547e-01        
                   2.370e-09        5.800e-09        1.700e-08        
                   3.170e-01        2.604e-02       -1.466e-01        
                   2.700e-09        5.100e-09        1.800e-08        
                  -3.831e-01        8.829e-03       -1.519e-01        
                   2.700e-09        5.100e-09        1.800e-08        
                  -4.204e-01        8.745e-03       -1.515e-01        
                   2.700e-09        5.100e-09        1.800e-08        
                  -4.012e-01        8.853e-03       -1.513e-01        
                   2.370e-09        5.800e-09        1.700e-08        
                   3.291e-01        2.605e-02       -1.451e-01        
                   2.370e-09        5.800e-09        1.700e-08        
                   3.360e-01        2.606e-02       -1.576e-01        
                   2.370e-09        5.800e-09        1.700e-08        
                   3.298e-01        2.605e-02       -1.609e-01        
                   2.700e-09        5.100e-09        1.800e-08        
                  -3.799e-01        8.734e-03       -1.528e-01        
                   2.700e-09        5.100e-09        1.800e-08        
                  -3.850e-01        8.849e-03       -1.493e-01        
                   2.700e-09        5.100e-09        1.800e-08        
                  -3.888e-01        8.741e-03       -1.483e-01        
                   2.370e-09        5.800e-09        1.700e-08        
                   3.084e-01        2.605e-02       -1.513e-01        
                   2.370e-09        5.800e-09        1.700e-08        
                   3.410e-01        2.604e-02       -1.613e-01        
                   2.370e-09        5.800e-09        1.700e-08        
                   3.248e-01        2.605e-02       -1.492e-01        
                   2.700e-09        5.100e-09        1.800e-08        
                  -3.869e-01        8.756e-03       -1.489e-01        
                   2.700e-09        5.100e-09        1.800e-08        
                  -4.055e-01        8.814e-03       -1.486e-01        
                   2.700e-09        5.100e-09        1.800e-08        
                  -4.167e-01        8.787e-03       -1.517e-01        
                   2.370e-09        5.800e-09        1.700e-08        
                   3.264e-01        2.605e-02       -1.446e-01        
                   2.370e-09        5.800e-09        1.700e-08        
                   3.123e-01        2.605e-02       -1.566e-01        
                   2.370e-09        5.800e-09        1.700e-08        
                   3.305e-01        2.605e-02       -1.529e-01        
                   2.700e-09        5.100e-09        1.800e-08        
                  -4.085e-01        8.789e-03       -1.491e-01        
                   2.700e-09        5.100e-09        1.800e-08        
                  -3.865e-01        8.717e-03       -1.512e-01        
                   2.700e-09        5.100e-09        1.800e-08        
                  -4.141e-01        8.853e-03       -1.513e-01        
                   2.370e-09        5.800e-09        1.700e-08        
                   3.231e-01        2.605e-02       -1.618e-01        
                   2.370e-09        5.800e-09        1.700e-08        
                   3.319e-01        2.605e-02       -1.596e-01        
                   2.370e-09        5.800e-09        1.700e-08        
                   3.051e-01        2.605e-02       -1.685e-01        
                   2.700e-09        5.100e-09        1.800e-08        
                  -4.030e-01        8.819e-03       -1.480e-01        
                   2.700e-09        5.100e-09        1.800e-08        
                  -3.944e-01        8.834e-03       -1.525e-01        
                   2.700e-09        5.100e-09        1.800e-08        
                  -4.024e-01        8.884e-03       -1.519e-01        
                   2.370e-09        5.800e-09        1.700e-08        
                   3.514e-01        2.606e-02       -1.594e-01        
                   2.370e-09        5.800e-09        1.700e-08        
                   3.010e-01        2.606e-02       -1.580e-01        
                   2.370e-09        5.800e-09        1.700e-08        
                   3.314e-01        2.604e-02       -1.526e-01        
                   2.700e-09        5.100e-09        1.800e-08        
                  -3.812e-01        8.828e-03       -1.498e-01        
                   2.700e-09        5.100e-09        1.800e-08        
                  -3.863e-01        8.789e-03       -1.492e-01        
                   2.700e-09        5.100e-09        1.800e-08        
                  -3.889e-01        8.802e-03       -1.520e-01        
                   2.370e-09        5.800e-09        1.700e-08        
                   3.248e-01        2.605e-02       -1.306e-01        
                   2.370e-09        5.800e-09        1.700e-08        
                   3.307e-01        2.605e-02       -1.733e-01        
                   2.370e-09        5.800e-09        1.700e-08        
                   3.328e-01        2.605e-02       -1.417e-01        
                   2.700e-09        5.100e-09        1.800e-08        
                  -3.893e-01        8.774e-03       -1.503e-01        
                   2.700e-09        5.100e-09        1.800e-08        
                  -3.816e-01        8.840e-03       -1.475e-01        
                   2.700e-09        5.100e-09        1.800e-08        
                  -3.893e-01        8.934e-03       -1.469e-01        
                   2.370e-09        5.800e-09        1.700e-08        
                   3.407e-01        2.605e-02       -1.693e-01        
                   2.370e-09        5.800e-09        1.700e-08        
                   3.242e-01        2.605e-02       -1.589e-01        
                   2.370e-09        5.800e-09        1.700e-08        
                   3.169e-01        2.605e-02       -1.527e-01        
                   1.335e-10        2.500e+01       1                 
 7                 2.700e-09        5.100e-09        1.800e-08        
                  -3.974e-01        8.763e-03       -1.532e-01        
                   2.700e-09        5.100e-09        1.800e-08        
                  -3.943e-01        8.787e-03       -1.489e-01        
                   2.700e-09        5.100e-09        1.800e-08        
                  -3.869e-01        8.839e-03       -1.508e-01        
                   2.370e-09        5.800e-09        1.700e-08        
                   3.292e-01        2.603e-02       -1.517e-01        
                   2.370e-09        5.800e-09        1.700e-08        
                   3.195e-01        2.604e-02       -1.699e-01        
                   2.370e-09        5.800e-09        1.700e-08        
                   3.310e-01        2.605e-02       -1.492e-01        
                   2.700e-09        5.100e-09        1.800e-08        
                  -3.976e-01        8.713e-03       -1.488e-01        
                   2.700e-09        5.100e-09        1.800e-08        
                  -3.903e-01        8.797e-03       -1.523e-01        
                   2.700e-09        5.100e-09        1.800e-08        
                  -4.000e-01        8.814e-03       -1.520e-01        
                   2.370e-09        5.800e-09        1.700e-08        
                   3.116e-01        2.606e-02       -1.546e-01        
                   2.370e-09        5.800e-09        1.700e-08        
                   3.145e-01        2.606e-02       -1.487e-01        
                   2.370e-09        5.800e-09        1.700e-08        
                   3.463e-01        2.604e-02       -1.569e-01        
                   2.700e-09        5.100e-09        1.800e-08        
                  -3.893e-01        8.729e-03       -1.510e-01        
                   2.700e-09        5.100e-09        1.800e-08        
                  -3.955e-01        8.795e-03       -1.500e-01        
                   2.700e-09        5.100e-09        1.800e-08        
                  -4.183e-01        8.801e-03       -1.490e-01        
                   2.370e-09        5.800e-09        1.700e-08        
                   3.188e-01        2.606e-02       -1.522e-01        
                   2.370e-09        5.800e-09        1.700e-08        
                   3.356e-01        2.605e-02       -1.353e-01        
                   2.370e-09        5.800e-09        1.700e-08        
                   3.199e-01        2.604e-02       -1.481e-01        
                   2.700e-09        5.100e-09        1.800e-08        
                  -4.078e-01        8.848e-03       -1.475e-01        
                   2.700e-09        5.100e-09        1.800e-08        
                  -3.955e-01        8.805e-03       -1.476e-01        
                   2.700e-09        5.100e-09        1.800e-08        
                  -4.115e-01        8.841e-03       -1.493e-01        
                   2.370e-09        5.800e-09        1.700e-08        
                   3.342e-01        2.605e-02       -1.487e-01        
                   2.370e-09        5.800e-09        1.700e-08        
                   3.296e-01        2.605e-02       -1.546e-01        
                   2.370e-09        5.800e-09        1.700e-08        
                   3.214e-01        2.604e-02       -1.526e-01        
                   2.700e-09        5.100e-09        1.800e-08        
                  -3.723e-01        8.804e-03       -1.536e-01        
                   2.700e-09        5.100e-09        1.800e-08        
                  -4.091e-01        8.882e-03       -1.537e-01        
                   2.700e-09        5.100e-09        1.800e-08        
                  -3.966e-01        8.805e-03       -1.502e-01        
                   2.370e-09        5.800e-09        1.700e-08        
                   3.280e-01        2.606e-02       -1.521e-01        
                   2.370e-09        5.800e-09        1.700e-08        
                   3.403e-01        2.605e-02       -1.394e-01        
                   2.370e-09        5.800e-09        1.700e-08        
                   3.362e-01        2.605e-02       -1.216e-01        
                   2.700e-09        5.100e-09        1.800e-08        
                  -3.869e-01        8.770e-03       -1.495e-01        
                   2.700e-09        5.100e-09        1.800e-08        
                  -3.980e-01        8.776e-03       -1.494e-01        
                   2.700e-09        5.100e-09        1.800e-08        
                  -3.962e-01        8.836e-03       -1.506e-01        
                   2.370e-09        5.800e-09        1.700e-08        
                   3.247e-01        2.604e-02       -1.427e-01        
                   2.370e-09        5.800e-09        1.700e-08        
                   3.102e-01        2.604e-02       -1.528e-01        
                   2.370e-09        5.800e-09        1.700e-08        
                   3.214e-01        2.605e-02       -1.467e-01        
                   2.700e-09        5.100e-09        1.800e-08        
                  -4.012e-01        8.831e-03       -1.498e-01        
                   2.700e-09        5.100e-09        1.800e-08        
                  -3.862e-01        8.755e-03       -1.491e-01        
                   2.700e-09        5.100e-09        1.800e-08        
                  -4.018e-01        8.787e-03       -1.494e-01        
                   2.370e-09        5.800e-09        1.700e-08        
                   3.284e-01        2.605e-02       -1.553e-01        
                   2.370e-09        5.800e-09        1.700e-08        
                   3.246e-01        2.606e-02       -1.606e-01        
                   2.370e-09        5.800e-09        1.700e-08        
                   3.376e-01        2.605e-02       -1.346e-01        
                   2.700e-09        5.100e-09        1.800e-08        
                  -3.956e-01        8.779e-03       -1.497e-01        
                   2.700e-09        5.100e-09        1.800e-08        
                  -3.904e-01        8.859e-03       -1.499e-01        
                   2.700e-09        5.100e-09        1.800e-08        
                  -3.947e-01        8.862e-03       -1.496e-01        
                   2.370e-09        5.800e-09        1.700e-08        
                   3.172e-01        2.607e-02       -1.534e-01        
                   2.370e-09        5.800e-09        1.700e-08        
                   3.248e-01        2.605e-02       -1.671e-01        
                   2.370e-09        5.800e-09        1.700e-08        
                   3.354e-01        2.605e-02       -1.654e-01        
                   2.700e-09        5.100e-09        1.800e-08        
                  -3.884e-01        8.767e-03       -1.501e-01        
                   2.700e-09        5.100e-09        1.800e-08        
                  -3.943e-01        8.893e-03       -1.496e-01        
                   2.700e-09        5.100e-09        1.800e-08        
                  -4.037e-01        8.784e-03       -1.512e-01        
                   2.370e-09        5.800e-09        1.700e-08        
                   3.345e-01        2.604e-02       -1.506e-01        
                   2.370e-09        5.800e-09        1.700e-08        
                   3.231e-01        2.606e-02       -1.768e-01        
                   2.370e-09        5.800e-09        1.700e-08        
                   3.283e-01        2.605e-02       -1.486e-01        
                   2.700e-09        5.100e-09        1.800e-08        
                  -3.894e-01        8.910e-03       -1.527e-01        
                   2.700e-09        5.100e-09        1.800e-08        
                  -4.013e-01        8.899e-03       -1.508e-01        
                   2.700e-09        5.100e-09        1.800e-08        
                  -3.931e-01        8.843e-03       -1.487e-01        
                   2.370e-09        5.800e-09        1.700e-08        
                   3.403e-01        2.606e-02       -1.378e-01        
                   2.370e-09        5.800e-09        1.700e-08        
                   3.234e-01        2.605e-02       -1.890e-01        
                   2.370e-09        5.800e-09        1.700e-08        
                   3.353e-01        2.606e-02       -1.756e-01        
                   1.331e-10        2.500e+01       1                 
 8                 2.700e-09        5.100e-09        1.800e-08        
                  -4.005e-01        8.757e-03       -1.499e-01        
                   2.700e-09        5.100e-09        1.800e-08        
                  -4.070e-01        8.720e-03       -1.495e-01        
                   2.700e-09        5.100e-09        1.800e-08        
                  -3.903e-01        8.821e-03       -1.504e-01        
                   2.370e-09        5.800e-09        1.700e-08        
                   3.102e-01        2.605e-02       -1.607e-01        
                   2.370e-09        5.800e-09        1.700e-08        
                   3.336e-01        2.605e-02       -1.621e-01        
                   2.370e-09        5.800e-09        1.700e-08        
                   3.407e-01        2.605e-02       -1.359e-01        
                   2.700e-09        5.100e-09        1.800e-08        
                  -3.906e-01        8.770e-03       -1.522e-01        
                   2.700e-09        5.100e-09        1.800e-08        
                  -4.030e-01        8.765e-03       -1.538e-01        
                   2.700e-09        5.100e-09        1.800e-08        
                  -3.875e-01        8.877e-03       -1.542e-01        
                   2.370e-09        5.800e-09        1.700e-08        
                   2.988e-01        2.606e-02       -1.438e-01        
                   2.370e-09        5.800e-09        1.700e-08        
                   3.291e-01        2.606e-02       -1.823e-01        
                   2.370e-09        5.800e-09        1.700e-08        
                   3.427e-01        2.605e-02       -1.496e-01        
                   2.700e-09        5.100e-09        1.800e-08        
                  -3.932e-01        8.817e-03       -1.491e-01        
                   2.700e-09        5.100e-09        1.800e-08        
                  -3.824e-01        8.814e-03       -1.485e-01        
                   2.700e-09        5.100e-09        1.800e-08        
                  -4.044e-01        8.770e-03       -1.480e-01        
                   2.370e-09        5.800e-09        1.700e-08        
                   3.120e-01        2.605e-02       -1.297e-01        
                   2.370e-09        5.800e-09        1.700e-08        
                   3.232e-01        2.605e-02       -1.472e-01        
                   2.370e-09        5.800e-09        1.700e-08        
                   3.242e-01        2.605e-02       -1.451e-01        
                   2.700e-09        5.100e-09        1.800e-08        
                  -3.928e-01        8.836e-03       -1.511e-01        
                   2.700e-09        5.100e-09        1.800e-08        
                  -3.821e-01        8.791e-03       -1.513e-01        
                   2.700e-09        5.100e-09        1.800e-08        
                  -4.072e-01        8.778e-03       -1.460e-01        
                   2.370e-09        5.800e-09        1.700e-08        
                   3.322e-01        2.605e-02       -1.572e-01        
                   2.370e-09        5.800e-09        1.700e-08        
                   3.221e-01        2.605e-02       -1.721e-01        
                   2.370e-09        5.800e-09        1.700e-08        
                   3.079e-01        2.605e-02       -1.490e-01        
                   2.700e-09        5.100e-09        1.800e-08        
                  -3.972e-01        8.809e-03       -1.521e-01        
                   2.700e-09        5.100e-09        1.800e-08        
                  -3.879e-01        8.790e-03       -1.496e-01        
                   2.700e-09        5.100e-09        1.800e-08        
                  -3.944e-01        8.763e-03       -1.462e-01        
                   2.370e-09        5.800e-09        1.700e-08        
                   3.267e-01        2.604e-02       -1.387e-01        
                   2.370e-09        5.800e-09        1.700e-08        
                   3.292e-01        2.605e-02       -1.605e-01        
                   2.370e-09        5.800e-09        1.700e-08        
                   3.317e-01        2.605e-02       -1.375e-01        
                   2.700e-09        5.100e-09        1.800e-08        
                  -3.840e-01        8.882e-03       -1.498e-01        
                   2.700e-09        5.100e-09        1.800e-08        
                  -3.775e-01        8.770e-03       -1.511e-01        
                   2.700e-09        5.100e-09        1.800e-08        
                  -4.033e-01        8.839e-03       -1.489e-01        
                   2.370e-09        5.800e-09        1.700e-08        
                   3.526e-01        2.606e-02       -1.343e-01        
                   2.370e-09        5.800e-09        1.700e-08        
                   3.305e-01        2.605e-02       -1.606e-01        
                   2.370e-09        5.800e-09        1.700e-08        
                   3.130e-01        2.604e-02       -1.305e-01        
                   2.700e-09        5.100e-09        1.800e-08        
                  -4.102e-01        8.758e-03       -1.493e-01        
                   2.700e-09        5.100e-09        1.800e-08        
                  -4.003e-01        8.826e-03       -1.493e-01        
                   2.700e-09        5.100e-09        1.800e-08        
                  -3.985e-01        8.869e-03       -1.484e-01        
                   2.370e-09        5.800e-09        1.700e-08        
                   3.382e-01        2.604e-02       -1.590e-01        
                   2.370e-09        5.800e-09        1.700e-08        
                   3.316e-01        2.606e-02       -1.645e-01        
                   2.370e-09        5.800e-09        1.700e-08        
                   3.246e-01        2.605e-02       -1.507e-01        
                   2.700e-09        5.100e-09        1.800e-08        
                  -3.991e-01        8.793e-03       -1.523e-01        
                   2.700e-09        5.100e-09        1.800e-08        
                  -3.850e-01        8.841e-03       -1.496e-01        
                   2.700e-09        5.100e-09        1.800e-08        
                  -4.132e-01        8.869e-03       -1.503e-01        
                   2.370e-09        5.800e-09        1.700e-08        
                   3.321e-01        2.605e-02       -1.469e-01        
                   2.370e-09        5.800e-09        1.700e-08        
                   3.108e-01        2.605e-02       -1.544e-01        
                   2.370e-09        5.800e-09        1.700e-08        
                   3.289e-01        2.605e-02       -1.794e-01        
                   2.700e-09        5.100e-09        1.800e-08        
                  -4.106e-01        8.846e-03       -1.491e-01        
                   2.700e-09        5.100e-09        1.800e-08        
                  -4.133e-01        8.885e-03       -1.472e-01        
                   2.700e-09        5.100e-09        1.800e-08        
                  -3.872e-01        8.817e-03       -1.487e-01        
                   2.370e-09        5.800e-09        1.700e-08        
                   3.430e-01        2.605e-02       -1.712e-01        
                   2.370e-09        5.800e-09        1.700e-08        
                   3.345e-01        2.605e-02       -1.616e-01        
                   2.370e-09        5.800e-09        1.700e-08        
                   3.297e-01        2.605e-02       -1.586e-01        
                   2.700e-09        5.100e-09        1.800e-08        
                  -4.146e-01        8.834e-03       -1.493e-01        
                   2.700e-09        5.100e-09        1.800e-08        
                  -4.034e-01        8.840e-03       -1.503e-01        
                   2.700e-09        5.100e-09        1.800e-08        
                  -4.054e-01        8.692e-03       -1.509e-01        
                   2.370e-09        5.800e-09        1.700e-08        
                   3.206e-01        2.605e-02       -1.571e-01        
                   2.370e-09        5.800e-09        1.700e-08        
                   3.470e-01        2.606e-02       -1.589e-01        
                   2.370e-09        5.800e-09        1.700e-08        
                   3.292e-01        2.605e-02       -1.402e-01        
                   1.314e-10        2.500e+01       1                 
 9                 2.700e-09        5.100e-09        1.800e-08        
                  -4.025e-01        8.866e-03       -1.492e-01        
                   2.700e-09        5.100e-09        1.800e-08        
                  -3.943e-01        8.760e-03       -1.499e-01        
                   2.700e-09        5.100e-09        1.800e-08        
                  -3.934e-01        8.803e-03       -1.492e-01        
                   2.370e-09        5.800e-09        1.700e-08        
                   3.428e-01        2.604e-02       -1.661e-01        
                   2.370e-09        5.800e-09        1.700e-08        
                   3.295e-01        2.605e-02       -1.496e-01        
                   2.370e-09        5.800e-09        1.700e-08        
                   3.139e-01        2.605e-02       -1.232e-01        
                   2.700e-09        5.100e-09        1.800e-08        
                  -3.891e-01        8.761e-03       -1.476e-01        
                   2.700e-09        5.100e-09        1.800e-08        
                  -4.211e-01        8.741e-03       -1.500e-01        
                   2.700e-09        5.100e-09        1.800e-08        
                  -3.875e-01        8.793e-03       -1.539e-01        
                   2.370e-09        5.800e-09        1.700e-08        
                   3.298e-01        2.604e-02       -1.711e-01        
                   2.370e-09        5.800e-09        1.700e-08        
                   3.318e-01        2.605e-02       -1.442e-01        
                   2.370e-09        5.800e-09        1.700e-08        
                   3.305e-01        2.604e-02       -1.591e-01        
                   2.700e-09        5.100e-09        1.800e-08        
                  -3.851e-01        8.797e-03       -1.503e-01        
                   2.700e-09        5.100e-09        1.800e-08        
                  -4.002e-01        8.817e-03       -1.501e-01        
                   2.700e-09        5.100e-09        1.800e-08        
                  -3.937e-01        8.763e-03       -1.486e-01        
                   2.370e-09        5.800e-09        1.700e-08        
                   3.362e-01        2.605e-02       -1.629e-01        
                   2.370e-09        5.800e-09        1.700e-08        
                   3.340e-01        2.605e-02       -1.350e-01        
                   2.370e-09        5.800e-09        1.700e-08        
                   3.250e-01        2.605e-02       -1.693e-01        
[...]
                   2.370e-09        5.800e-09        1.700e-08        
                   3.269e-01        2.605e-02       -1.473e-01        
                   2.700e-09        5.100e-09        1.800e-08        
                  -3.974e-01        8.766e-03       -1.501e-01        
                   2.700e-09        5.100e-09        1.800e-08        
                  -3.950e-01        8.852e-03       -1.499e-01        
                   2.700e-09        5.100e-09        1.800e-08        
                  -3.975e-01        8.903e-03       -1.505e-01        
                   2.370e-09        5.800e-09        1.700e-08        
                   3.228e-01        2.605e-02       -1.460e-01        
                   2.370e-09        5.800e-09        1.700e-08        
                   3.285e-01        2.605e-02       -1.371e-01        
                   2.370e-09        5.800e-09        1.700e-08        
                   3.246e-01        2.605e-02       -1.514e-01        
                   2.700e-09        5.100e-09        1.800e-08        
                  -4.207e-01        8.839e-03       -1.510e-01        
                   2.700e-09        5.100e-09        1.800e-08        
                  -4.167e-01        8.777e-03       -1.493e-01        
                   2.700e-09        5.100e-09        1.800e-08        
                  -4.031e-01        8.848e-03       -1.488e-01        
                   2.370e-09        5.800e-09        1.700e-08        
                   3.107e-01        2.605e-02       -1.805e-01        
                   2.370e-09        5.800e-09        1.700e-08        
                   3.350e-01        2.605e-02       -1.747e-01        
                   2.370e-09        5.800e-09        1.700e-08        
                   3.184e-01        2.606e-02       -1.481e-01        
                   2.700e-09        5.100e-09        1.800e-08        
                  -3.740e-01        8.782e-03       -1.493e-01        
                   2.700e-09        5.100e-09        1.800e-08        
                  -4.051e-01        8.889e-03       -1.498e-01        
                   2.700e-09        5.100e-09        1.800e-08        
                  -4.027e-01        8.859e-03       -1.495e-01        
                   2.370e-09        5.800e-09        1.700e-08        
                   3.238e-01        2.605e-02       -1.634e-01        
                   2.370e-09        5.800e-09        1.700e-08        
                   3.497e-01        2.606e-02       -1.504e-01        
                   2.370e-09        5.800e-09        1.700e-08        
                   3.173e-01        2.605e-02       -1.177e-01        
                   1.344e-10        2.500e+01       1                 
 99                2.700e-09        5.100e-09        1.800e-08        
                  -3.872e-01        8.750e-03       -1.523e-01        
                   2.700e-09        5.100e-09        1.800e-08        
                  -4.052e-01        8.805e-03       -1.526e-01        
                   2.700e-09        5.100e-09        1.800e-08        
                  -3.811e-01        8.841e-03       -1.509e-01        
                   2.370e-09        5.800e-09        1.700e-08        
                   3.289e-01        2.605e-02       -1.490e-01        
                   2.370e-09        5.800e-09        1.700e-08        
                   3.206e-01        2.605e-02       -1.535e-01        
                   2.370e-09        5.800e-09        1.700e-08        
                   3.319e-01        2.606e-02       -1.456e-01        
                   2.700e-09        5.100e-09        1.800e-08        
                  -3.905e-01        8.852e-03       -1.493e-01        
                   2.700e-09        5.100e-09        1.800e-08        
                  -3.969e-01        8.771e-03       -1.502e-01        
                   2.700e-09        5.100e-09        1.800e-08        
                  -4.004e-01        8.839e-03       -1.505e-01        
                   2.370e-09        5.800e-09        1.700e-08        
                   3.189e-01        2.605e-02       -1.461e-01        
                   2.370e-09        5.800e-09        1.700e-08        
                   3.026e-01        2.605e-02       -1.449e-01        
                   2.370e-09        5.800e-09        1.700e-08        
                   3.149e-01        2.605e-02       -1.485e-01        
                   2.700e-09        5.100e-09        1.800e-08        
                  -4.081e-01        8.736e-03       -1.477e-01        
                   2.700e-09        5.100e-09        1.800e-08        
                  -3.895e-01        8.714e-03       -1.556e-01        
                   2.700e-09        5.100e-09        1.800e-08        
                  -3.980e-01        8.815e-03       -1.491e-01        
                   2.370e-09        5.800e-09        1.700e-08        
                   3.175e-01        2.605e-02       -1.536e-01        
                   2.370e-09        5.800e-09        1.700e-08        
                   3.377e-01        2.605e-02       -1.642e-01        
                   2.370e-09        5.800e-09        1.700e-08        
                   3.323e-01        2.605e-02       -1.431e-01        
                   2.700e-09        5.100e-09        1.800e-08        
                  -3.978e-01        8.817e-03       -1.504e-01        
                   2.700e-09        5.100e-09        1.800e-08        
                  -4.046e-01        8.825e-03       -1.500e-01        
                   2.700e-09        5.100e-09        1.800e-08        
                  -4.123e-01        8.784e-03       -1.531e-01        
                   2.370e-09        5.800e-09        1.700e-08        
                   3.057e-01        2.605e-02       -1.641e-01        
                   2.370e-09        5.800e-09        1.700e-08        
                   3.136e-01        2.605e-02       -1.483e-01        
                   2.370e-09        5.800e-09        1.700e-08        
                   3.151e-01        2.604e-02       -1.568e-01        
                   2.700e-09        5.100e-09        1.800e-08        
                  -3.791e-01        8.830e-03       -1.465e-01        
                   2.700e-09        5.100e-09        1.800e-08        
                  -4.074e-01        8.749e-03       -1.476e-01        
                   2.700e-09        5.100e-09        1.800e-08        
                  -3.944e-01        8.779e-03       -1.508e-01        
                   2.370e-09        5.800e-09        1.700e-08        
                   3.556e-01        2.606e-02       -1.428e-01        
                   2.370e-09        5.800e-09        1.700e-08        
                   3.499e-01        2.605e-02       -1.517e-01        
                   2.370e-09        5.800e-09        1.700e-08        
                   3.237e-01        2.604e-02       -1.219e-01        
                   2.700e-09        5.100e-09        1.800e-08        
                  -4.016e-01        8.757e-03       -1.502e-01        
                   2.700e-09        5.100e-09        1.800e-08        
                  -3.877e-01        8.833e-03       -1.509e-01        
                   2.700e-09        5.100e-09        1.800e-08        
                  -3.679e-01        8.806e-03       -1.490e-01        
                   2.370e-09        5.800e-09        1.700e-08        
                   3.392e-01        2.604e-02       -1.603e-01        
                   2.370e-09        5.800e-09        1.700e-08        
                   3.258e-01        2.605e-02       -1.500e-01        
                   2.370e-09        5.800e-09        1.700e-08        
                   3.263e-01        2.604e-02       -1.599e-01        
                   2.700e-09        5.100e-09        1.800e-08        
                  -4.102e-01        8.851e-03       -1.509e-01        
                   2.700e-09        5.100e-09        1.800e-08        
                  -4.007e-01        8.761e-03       -1.482e-01        
                   2.700e-09        5.100e-09        1.800e-08        
                  -4.065e-01        8.796e-03       -1.512e-01        
                   2.370e-09        5.800e-09        1.700e-08        
                   3.222e-01        2.606e-02       -1.590e-01        
                   2.370e-09        5.800e-09        1.700e-08        
                   3.214e-01        2.605e-02       -1.420e-01        
                   2.370e-09        5.800e-09        1.700e-08        
                   3.408e-01        2.604e-02       -1.605e-01        
                   2.700e-09        5.100e-09        1.800e-08        
                  -3.939e-01        8.805e-03       -1.518e-01        
                   2.700e-09        5.100e-09        1.800e-08        
                  -3.918e-01        8.758e-03       -1.490e-01        
                   2.700e-09        5.100e-09        1.800e-08        
                  -4.149e-01        8.810e-03       -1.526e-01        
                   2.370e-09        5.800e-09        1.700e-08        
                   3.314e-01        2.605e-02       -1.712e-01        
                   2.370e-09        5.800e-09        1.700e-08        
                   3.324e-01        2.605e-02       -1.562e-01        
                   2.370e-09        5.800e-09        1.700e-08        
                   3.247e-01        2.605e-02       -1.570e-01        
                   2.700e-09        5.100e-09        1.800e-08        
                  -3.926e-01        8.810e-03       -1.484e-01        
                   2.700e-09        5.100e-09        1.800e-08        
                  -3.859e-01        8.815e-03       -1.499e-01        
                   2.700e-09        5.100e-09        1.800e-08        
                  -4.122e-01        8.796e-03       -1.492e-01        
                   2.370e-09        5.800e-09        1.700e-08        
                   3.502e-01        2.605e-02       -1.511e-01        
                   2.370e-09        5.800e-09        1.700e-08        
                   3.097e-01        2.605e-02       -1.573e-01        
                   2.370e-09        5.800e-09        1.700e-08        
                   3.352e-01        2.606e-02       -1.050e-01        
                   2.700e-09        5.100e-09        1.800e-08        
                  -3.863e-01        8.772e-03       -1.517e-01        
                   2.700e-09        5.100e-09        1.800e-08        
                  -3.904e-01        8.772e-03       -1.482e-01        
                   2.700e-09        5.100e-09        1.800e-08        
                  -4.099e-01        8.775e-03       -1.490e-01        
                   2.370e-09        5.800e-09        1.700e-08        
                   3.466e-01        2.605e-02       -1.676e-01        
                   2.370e-09        5.800e-09        1.700e-08        
                   3.207e-01        2.605e-02       -1.267e-01        
                   2.370e-09        5.800e-09        1.700e-08        
                   3.334e-01        2.606e-02       -1.326e-01        
                   1.341e-10        2.500e+01       1                 
 100               2.700e-09        5.100e-09        1.800e-08        
                  -3.985e-01        8.861e-03       -1.510e-01        
                   2.700e-09        5.100e-09        1.800e-08        
                  -3.913e-01        8.828e-03       -1.485e-01        
                   2.700e-09        5.100e-09        1.800e-08        
                  -3.851e-01        8.808e-03       -1.481e-01        
                   2.370e-09        5.800e-09        1.700e-08        
                   3.371e-01        2.606e-02       -1.612e-01        
                   2.370e-09        5.800e-09        1.700e-08        
                   3.153e-01        2.604e-02       -1.515e-01        
                   2.370e-09        5.800e-09        1.700e-08        
                   3.367e-01        2.605e-02       -1.602e-01        
                   2.700e-09        5.100e-09        1.800e-08        
                  -3.931e-01        8.847e-03       -1.489e-01        
                   2.700e-09        5.100e-09        1.800e-08        
                  -3.952e-01        8.771e-03       -1.494e-01        
                   2.700e-09        5.100e-09        1.800e-08        
                  -3.910e-01        8.764e-03       -1.511e-01        
                   2.370e-09        5.800e-09        1.700e-08        
                   3.382e-01        2.606e-02       -1.563e-01        
                   2.370e-09        5.800e-09        1.700e-08        
                   3.357e-01        2.605e-02       -1.831e-01        
                   2.370e-09        5.800e-09        1.700e-08        
                   3.176e-01        2.605e-02       -1.672e-01        
                   2.700e-09        5.100e-09        1.800e-08        
                  -3.976e-01        8.879e-03       -1.521e-01        
                   2.700e-09        5.100e-09        1.800e-08        
                  -4.095e-01        8.939e-03       -1.511e-01        
                   2.700e-09        5.100e-09        1.800e-08        
                  -4.063e-01        8.780e-03       -1.516e-01        
                   2.370e-09        5.800e-09        1.700e-08        
                   3.316e-01        2.604e-02       -1.477e-01        
                   2.370e-09        5.800e-09        1.700e-08        
                   3.248e-01        2.604e-02       -1.258e-01        
                   2.370e-09        5.800e-09        1.700e-08        
                   3.326e-01        2.605e-02       -1.466e-01        
                   2.700e-09        5.100e-09        1.800e-08        
                  -3.729e-01        8.786e-03       -1.507e-01        
                   2.700e-09        5.100e-09        1.800e-08        
                  -3.871e-01        8.830e-03       -1.500e-01        
                   2.700e-09        5.100e-09        1.800e-08        
                  -4.057e-01        8.785e-03       -1.495e-01        
                   2.370e-09        5.800e-09        1.700e-08        
                   3.260e-01        2.605e-02       -1.452e-01        
                   2.370e-09        5.800e-09        1.700e-08        
                   3.263e-01        2.606e-02       -1.679e-01        
                   2.370e-09        5.800e-09        1.700e-08        
                   3.452e-01        2.605e-02       -1.492e-01        
                   2.700e-09        5.100e-09        1.800e-08        
                  -4.184e-01        8.788e-03       -1.488e-01        
                   2.700e-09        5.100e-09        1.800e-08        
                  -4.049e-01        8.783e-03       -1.481e-01        
                   2.700e-09        5.100e-09        1.800e-08        
                  -4.102e-01        8.870e-03       -1.496e-01        
                   2.370e-09        5.800e-09        1.700e-08        
                   3.277e-01        2.605e-02       -1.356e-01        
                   2.370e-09        5.800e-09        1.700e-08        
                   3.404e-01        2.606e-02       -1.402e-01        
                   2.370e-09        5.800e-09        1.700e-08        
                   3.455e-01        2.605e-02       -1.747e-01        
                   2.700e-09        5.100e-09        1.800e-08        
                  -3.952e-01        8.801e-03       -1.525e-01        
                   2.700e-09        5.100e-09        1.800e-08        
                  -4.031e-01        8.770e-03       -1.499e-01        
                   2.700e-09        5.100e-09        1.800e-08        
                  -4.113e-01        8.776e-03       -1.505e-01        
                   2.370e-09        5.800e-09        1.700e-08        
                   3.415e-01        2.604e-02       -1.514e-01        
                   2.370e-09        5.800e-09        1.700e-08        
                   3.336e-01        2.605e-02       -1.501e-01        
                   2.370e-09        5.800e-09        1.700e-08        
                   3.277e-01        2.604e-02       -1.771e-01        
                   2.700e-09        5.100e-09        1.800e-08        
                  -4.127e-01        8.772e-03       -1.508e-01        
                   2.700e-09        5.100e-09        1.800e-08        
                  -4.042e-01        8.852e-03       -1.496e-01        
                   2.700e-09        5.100e-09        1.800e-08        
                  -3.921e-01        8.867e-03       -1.509e-01        
                   2.370e-09        5.800e-09        1.700e-08        
                   3.272e-01        2.604e-02       -1.640e-01        
                   2.370e-09        5.800e-09        1.700e-08        
                   3.476e-01        2.604e-02       -1.589e-01        
                   2.370e-09        5.800e-09        1.700e-08        
                   3.335e-01        2.605e-02       -1.413e-01        
                   2.700e-09        5.100e-09        1.800e-08        
                  -3.899e-01        8.865e-03       -1.532e-01        
                   2.700e-09        5.100e-09        1.800e-08        
                  -3.832e-01        8.765e-03       -1.496e-01        
                   2.700e-09        5.100e-09        1.800e-08        
                  -4.160e-01        8.793e-03       -1.517e-01        
                   2.370e-09        5.800e-09        1.700e-08        
                   3.430e-01        2.604e-02       -1.479e-01        
                   2.370e-09        5.800e-09        1.700e-08        
                   3.393e-01        2.605e-02       -1.789e-01        
                   2.370e-09        5.800e-09        1.700e-08        
                   3.294e-01        2.605e-02       -1.539e-01        
                   2.700e-09        5.100e-09        1.800e-08        
                  -3.945e-01        8.768e-03       -1.488e-01        
                   2.700e-09        5.100e-09        1.800e-08        
                  -3.966e-01        8.792e-03       -1.491e-01        
                   2.700e-09        5.100e-09        1.800e-08        
                  -3.641e-01        8.809e-03       -1.530e-01        
                   2.370e-09        5.800e-09        1.700e-08        
                   3.253e-01        2.606e-02       -1.458e-01        
                   2.370e-09        5.800e-09        1.700e-08        
                   3.263e-01        2.606e-02       -1.592e-01        
                   2.370e-09        5.800e-09        1.700e-08        
                   3.185e-01        2.605e-02       -1.652e-01        
                   2.700e-09        5.100e-09        1.800e-08        
                  -4.092e-01        8.879e-03       -1.497e-01        
                   2.700e-09        5.100e-09        1.800e-08        
                  -3.999e-01        8.764e-03       -1.503e-01        
                   2.700e-09        5.100e-09        1.800e-08        
                  -4.103e-01        8.783e-03       -1.477e-01        
                   2.370e-09        5.800e-09        1.700e-08        
                   3.351e-01        2.606e-02       -1.395e-01        
                   2.370e-09        5.800e-09        1.700e-08        
                   3.442e-01        2.606e-02       -1.573e-01        
                   2.370e-09        5.800e-09        1.700e-08        
                   3.200e-01        2.605e-02       -1.777e-01        
                   1.349e-10        2.500e+01       1                 
